
<additional>

	<vType id="1" accel="3.0" decel="6.0" length="4.5" minGap="2.5" maxSpeed="50.0" sigma="0.8" color="1,0,0"/>
	<vType id="2" accel="2.0" decel="6.0" length="5.0" minGap="2.5" maxSpeed="50.0" sigma="0.6" color="0,1,0"/>
	<vType id="3" accel="1.0" decel="5.0" length="4.0" minGap="2.5" maxSpeed="40.0" sigma="0.3" color="0,0,1"/>
	<vType id="4" accel="3.0" decel="5.0" length="3.5" minGap="2.5" maxSpeed="60.0" sigma="0.2" color="1,1,0"/>

</additional>
