<?xml version="1.0" encoding="UTF-8"?>

<!-- generated on 12/07/12 14:10:18 by SUMO netconvert Version 0.16.0
<?xml version="1.0" encoding="UTF-8"?>

<configuration xmlns:xsi="http://www.w3.org/2001/XMLSchema-instance" xsi:noNamespaceSchemaLocation="http://sumo.sf.net/xsd/netconvertConfiguration.xsd">

    <input>
        <node-files value="nodes.xml"/>
        <edge-files value="edges.xml"/>
        <connection-files value="connections.xml"/>
        <type-files value="types.xml"/>
    </input>

    <output>
        <output-file value="net.xml"/>
    </output>

</configuration>
-->

<net version="0.13" xmlns:xsi="http://www.w3.org/2001/XMLSchema-instance" xsi:noNamespaceSchemaLocation="http://sumo.sf.net/xsd/net_file.xsd">

    <location netOffset="-10.00,0.00" convBoundary="0.00,0.00,4050.00,382.00" origBoundary="10.00,0.00,4060.00,382.00" projParameter="!"/>

    <edge id=":1_0" function="internal">
        <lane id=":1_0_0" index="0" speed="27.94" length="4.82" shape="415.42,-0.47 416.57,-1.42 417.47,-1.58 418.15,-0.95 418.58,0.47"/>
    </edge>
    <edge id=":10_0" function="internal">
        <lane id=":10_0_0" index="0" speed="27.94" length="3.86" shape="1594.70,114.33 1590.84,114.35"/>
    </edge>
    <edge id=":10_1" function="internal">
        <lane id=":10_1_0" index="0" speed="27.94" length="4.95" shape="1594.70,114.33 1591.00,111.06"/>
    </edge>
    <edge id=":10_2" function="internal">
        <lane id=":10_2_0" index="0" speed="27.94" length="3.16" shape="1591.16,107.76 1594.32,107.74"/>
    </edge>
    <edge id=":10_3" function="internal">
        <lane id=":10_3_0" index="0" speed="27.94" length="4.69" shape="1591.16,107.76 1594.51,111.04"/>
    </edge>
    <edge id=":11_0" function="internal">
        <lane id=":11_0_0" index="0" speed="27.94" length="25.27" shape="2004.40,95.41 1996.92,95.70 1989.93,96.90 1984.13,98.79 1980.19,101.15"/>
    </edge>
    <edge id=":11_1" function="internal">
        <lane id=":11_1_0" index="0" speed="27.94" length="30.35" shape="2004.40,95.41 1996.16,94.79 1987.42,93.76 1979.61,92.84 1974.20,92.56"/>
    </edge>
    <edge id=":11_2" function="internal">
        <lane id=":11_2_0" index="0" speed="27.94" length="8.71" shape="2004.50,92.11 1997.13,91.13 1996.08,90.41"/>
    </edge>
    <edge id=":11_12" function="internal">
        <lane id=":11_12_0" index="0" speed="27.94" length="13.43" shape="1996.08,90.41 1993.73,88.79 1994.31,85.08 1998.88,80.01"/>
    </edge>
    <edge id=":11_3" function="internal">
        <lane id=":11_3_0" index="0" speed="27.94" length="6.79" shape="2003.23,84.98 2001.75,86.59 2001.49,87.77 2002.44,88.51 2004.61,88.81"/>
    </edge>
    <edge id=":11_4" function="internal">
        <lane id=":11_4_0" index="0" speed="27.94" length="28.17" shape="2003.23,84.98 1996.98,89.81 1990.28,94.27 1984.29,98.13 1980.19,101.15"/>
    </edge>
    <edge id=":11_5" function="internal">
        <lane id=":11_5_0" index="0" speed="27.94" length="29.03" shape="2001.05,82.50 1994.39,86.81 1986.68,89.89 1979.44,91.79 1974.20,92.56"/>
    </edge>
    <edge id=":11_6" function="internal">
        <lane id=":11_6_0" index="0" speed="27.94" length="26.02" shape="1973.82,85.97 1981.42,85.26 1988.68,84.01 1994.78,82.26 1998.88,80.01"/>
    </edge>
    <edge id=":11_7" function="internal">
        <lane id=":11_7_0" index="0" speed="27.94" length="30.95" shape="1973.82,85.97 1982.14,86.15 1991.08,87.12 1999.09,88.22 2004.61,88.81"/>
    </edge>
    <edge id=":11_8" function="internal">
        <lane id=":11_8_0" index="0" speed="27.94" length="9.68" shape="1974.01,89.26 1982.10,89.57 1983.48,90.33"/>
    </edge>
    <edge id=":11_13" function="internal">
        <lane id=":11_13_0" index="0" speed="27.94" length="14.14" shape="1983.48,90.33 1985.83,91.65 1985.19,95.51 1980.19,101.15"/>
    </edge>
    <edge id=":11_9" function="internal">
        <lane id=":11_9_0" index="0" speed="27.94" length="7.17" shape="1975.75,96.26 1977.32,94.51 1977.59,93.31 1976.55,92.66 1974.20,92.56"/>
    </edge>
    <edge id=":11_10" function="internal">
        <lane id=":11_10_0" index="0" speed="27.94" length="28.29" shape="1975.75,96.26 1981.96,91.35 1988.68,86.85 1994.72,83.00 1998.88,80.01"/>
    </edge>
    <edge id=":11_11" function="internal">
        <lane id=":11_11_0" index="0" speed="27.94" length="9.72" shape="1977.97,98.71 1984.55,94.30 1986.22,93.62"/>
    </edge>
    <edge id=":11_14" function="internal">
        <lane id=":11_14_0" index="0" speed="27.94" length="19.12" shape="1986.22,93.62 1992.19,91.18 1999.38,89.35 2004.61,88.81"/>
    </edge>
    <edge id=":12_0" function="internal">
        <lane id=":12_0_0" index="0" speed="27.94" length="3.63" shape="2420.19,108.51 2416.56,108.54"/>
    </edge>
    <edge id=":12_1" function="internal">
        <lane id=":12_1_0" index="0" speed="27.94" length="4.81" shape="2420.19,108.51 2416.66,105.24"/>
    </edge>
    <edge id=":12_2" function="internal">
        <lane id=":12_2_0" index="0" speed="27.94" length="3.12" shape="2416.77,101.94 2419.89,101.92"/>
    </edge>
    <edge id=":12_3" function="internal">
        <lane id=":12_3_0" index="0" speed="27.94" length="4.63" shape="2416.77,101.94 2420.04,105.22"/>
    </edge>
    <edge id=":13_0" function="internal">
        <lane id=":13_0_0" index="0" speed="27.94" length="12.59" shape="2786.63,99.28 2785.58,96.06 2783.75,93.80 2781.15,92.52 2777.76,92.21"/>
    </edge>
    <edge id=":13_1" function="internal">
        <lane id=":13_1_0" index="0" speed="27.94" length="19.47" shape="2786.63,99.28 2785.22,93.05 2783.49,88.27 2781.40,84.62 2778.90,81.76"/>
    </edge>
    <edge id=":13_2" function="internal">
        <lane id=":13_2_0" index="0" speed="27.94" length="15.36" shape="2789.88,98.70 2789.66,94.18 2790.84,90.90 2793.41,88.84 2797.38,88.02"/>
    </edge>
    <edge id=":13_3" function="internal">
        <lane id=":13_3_0" index="0" speed="27.94" length="6.65" shape="2797.68,94.61 2795.47,94.92 2793.97,95.60 2793.19,96.67 2793.13,98.12"/>
    </edge>
    <edge id=":13_4" function="internal">
        <lane id=":13_4_0" index="0" speed="27.94" length="20.12" shape="2797.68,94.61 2791.06,94.39 2785.85,93.49 2781.58,92.55 2777.76,92.21"/>
    </edge>
    <edge id=":13_5" function="internal">
        <lane id=":13_5_0" index="0" speed="27.94" length="15.17" shape="2797.53,91.31 2793.31,90.85 2788.80,89.11 2783.99,86.08 2783.69,85.82"/>
    </edge>
    <edge id=":13_12" function="internal">
        <lane id=":13_12_0" index="0" speed="27.94" length="6.28" shape="2783.69,85.82 2778.90,81.76"/>
    </edge>
    <edge id=":13_6" function="internal">
        <lane id=":13_6_0" index="0" speed="27.94" length="17.90" shape="2783.44,76.97 2788.72,81.84 2792.81,85.30 2795.70,87.36 2797.38,88.02"/>
    </edge>
    <edge id=":13_7" function="internal">
        <lane id=":13_7_0" index="0" speed="27.94" length="23.67" shape="2783.44,76.97 2787.89,82.48 2790.67,88.27 2792.26,93.70 2793.13,98.12"/>
    </edge>
    <edge id=":13_8" function="internal">
        <lane id=":13_8_0" index="0" speed="27.94" length="21.11" shape="2781.17,79.36 2785.75,84.71 2786.71,88.63 2784.05,91.13 2777.76,92.21"/>
    </edge>
    <edge id=":13_9" function="internal">
        <lane id=":13_9_0" index="0" speed="27.94" length="6.57" shape="2777.46,85.62 2779.52,85.29 2780.45,84.53 2780.24,83.36 2778.90,81.76"/>
    </edge>
    <edge id=":13_10" function="internal">
        <lane id=":13_10_0" index="0" speed="27.94" length="20.12" shape="2777.46,85.62 2784.09,85.83 2789.30,86.73 2793.57,87.67 2797.38,88.02"/>
    </edge>
    <edge id=":13_11" function="internal">
        <lane id=":13_11_0" index="0" speed="27.94" length="15.95" shape="2777.61,88.91 2783.74,89.25 2788.37,90.90 2791.50,93.85 2791.71,94.41"/>
    </edge>
    <edge id=":13_13" function="internal">
        <lane id=":13_13_0" index="0" speed="27.94" length="3.96" shape="2791.71,94.41 2793.13,98.12"/>
    </edge>
    <edge id=":14_0" function="internal">
        <lane id=":14_0_0" index="0" speed="27.94" length="3.16" shape="3269.18,73.58 3266.03,73.56"/>
    </edge>
    <edge id=":14_1" function="internal">
        <lane id=":14_1_0" index="0" speed="27.94" length="4.68" shape="3269.18,73.58 3265.88,70.26"/>
    </edge>
    <edge id=":14_2" function="internal">
        <lane id=":14_2_0" index="0" speed="27.94" length="3.83" shape="3265.73,66.97 3269.56,66.99"/>
    </edge>
    <edge id=":14_3" function="internal">
        <lane id=":14_3_0" index="0" speed="27.94" length="4.92" shape="3265.73,66.97 3269.37,70.28"/>
    </edge>
    <edge id=":15_0" function="internal">
        <lane id=":15_0_0" index="0" speed="27.94" length="20.27" shape="3595.97,102.87 3591.17,98.11 3587.16,94.46 3583.53,92.06 3579.92,91.08"/>
    </edge>
    <edge id=":15_1" function="internal">
        <lane id=":15_1_0" index="0" speed="27.94" length="25.92" shape="3595.97,102.87 3591.22,97.06 3587.53,90.83 3584.67,85.11 3582.45,80.87"/>
    </edge>
    <edge id=":15_2" function="internal">
        <lane id=":15_2_0" index="0" speed="27.94" length="8.29" shape="3598.29,100.52 3593.97,95.23 3593.65,93.81"/>
    </edge>
    <edge id=":15_12" function="internal">
        <lane id=":15_12_0" index="0" speed="27.94" length="12.28" shape="3593.65,93.81 3593.10,91.34 3595.68,88.83 3601.72,87.72"/>
    </edge>
    <edge id=":15_3" function="internal">
        <lane id=":15_3_0" index="0" speed="27.94" length="6.45" shape="3602.08,94.31 3600.07,94.65 3599.16,95.41 3599.34,96.59 3600.61,98.18"/>
    </edge>
    <edge id=":15_4" function="internal">
        <lane id=":15_4_0" index="0" speed="27.94" length="22.47" shape="3602.08,94.31 3595.11,94.07 3589.13,93.00 3584.08,91.78 3579.92,91.08"/>
    </edge>
    <edge id=":15_5" function="internal">
        <lane id=":15_5_0" index="0" speed="27.94" length="6.49" shape="3601.90,91.01 3595.89,90.64 3595.45,90.48"/>
    </edge>
    <edge id=":15_13" function="internal">
        <lane id=":15_13_0" index="0" speed="27.94" length="16.61" shape="3595.45,90.48 3590.64,88.82 3586.16,85.56 3582.45,80.87"/>
    </edge>
    <edge id=":15_6" function="internal">
        <lane id=":15_6_0" index="0" speed="27.94" length="17.88" shape="3588.08,77.41 3591.39,82.06 3594.77,85.33 3598.21,87.21 3601.72,87.72"/>
    </edge>
    <edge id=":15_7" function="internal">
        <lane id=":15_7_0" index="0" speed="27.94" length="24.29" shape="3588.08,77.41 3591.74,83.76 3594.97,89.67 3597.89,94.65 3600.61,98.18"/>
    </edge>
    <edge id=":15_8" function="internal">
        <lane id=":15_8_0" index="0" speed="27.94" length="6.85" shape="3585.26,79.14 3587.85,84.64 3587.85,85.41"/>
    </edge>
    <edge id=":15_14" function="internal">
        <lane id=":15_14_0" index="0" speed="27.94" length="11.75" shape="3587.85,85.41 3587.82,88.47 3585.18,90.62 3579.92,91.08"/>
    </edge>
    <edge id=":15_9" function="internal">
        <lane id=":15_9_0" index="0" speed="27.94" length="6.04" shape="3580.29,84.49 3582.13,84.36 3583.10,83.72 3583.21,82.55 3582.45,80.87"/>
    </edge>
    <edge id=":15_10" function="internal">
        <lane id=":15_10_0" index="0" speed="27.94" length="21.71" shape="3580.29,84.49 3587.15,85.27 3592.88,86.42 3597.67,87.40 3601.72,87.72"/>
    </edge>
    <edge id=":15_11" function="internal">
        <lane id=":15_11_0" index="0" speed="27.94" length="23.49" shape="3580.10,87.79 3587.02,89.16 3592.77,91.88 3597.31,95.15 3600.61,98.18"/>
    </edge>
    <edge id=":16_0" function="internal">
        <lane id=":16_0_0" index="0" speed="27.94" length="4.82" shape="3997.91,66.35 3999.19,67.11 3999.65,67.91 3999.28,68.76 3998.09,69.65"/>
    </edge>
    <edge id=":17_0" function="internal">
        <lane id=":17_0_0" index="0" speed="27.94" length="8.55" shape="423.89,201.59 423.23,210.11"/>
    </edge>
    <edge id=":17_1" function="internal">
        <lane id=":17_1_0" index="0" speed="27.94" length="8.01" shape="423.89,201.59 420.24,208.72"/>
    </edge>
    <edge id=":17_2" function="internal">
        <lane id=":17_2_0" index="0" speed="27.94" length="3.93" shape="417.24,207.33 417.54,203.42"/>
    </edge>
    <edge id=":17_3" function="internal">
        <lane id=":17_3_0" index="0" speed="27.94" length="5.95" shape="417.24,207.33 420.72,202.50"/>
    </edge>
    <edge id=":18_0" function="internal">
        <lane id=":18_0_0" index="0" speed="27.94" length="16.15" shape="1282.57,181.20 1285.22,184.78 1286.03,188.31 1284.99,191.77 1282.10,195.17"/>
    </edge>
    <edge id=":18_1" function="internal">
        <lane id=":18_1_0" index="0" speed="27.94" length="13.48" shape="1282.57,181.20 1284.22,183.75 1284.32,186.51 1282.89,189.50 1279.92,192.70"/>
    </edge>
    <edge id=":18_2" function="internal">
        <lane id=":18_2_0" index="0" speed="27.94" length="5.07" shape="1277.73,190.22 1278.64,189.16 1278.96,188.07 1278.71,186.97 1277.88,185.84"/>
    </edge>
    <edge id=":18_3" function="internal">
        <lane id=":18_3_0" index="0" speed="27.94" length="8.01" shape="1277.73,190.22 1279.71,188.19 1280.79,186.40 1280.96,184.84 1280.22,183.52"/>
    </edge>
    <edge id=":19_0" function="internal">
        <lane id=":19_0_0" index="0" speed="27.94" length="16.51" shape="1893.88,184.85 1890.96,181.31 1889.99,177.77 1890.96,174.23 1893.88,170.69"/>
    </edge>
    <edge id=":19_1" function="internal">
        <lane id=":19_1_0" index="0" speed="27.94" length="13.76" shape="1893.88,184.85 1892.02,182.30 1891.77,179.50 1893.13,176.44 1896.10,173.14"/>
    </edge>
    <edge id=":19_2" function="internal">
        <lane id=":19_2_0" index="0" speed="27.94" length="5.12" shape="1898.32,175.58 1897.41,176.67 1897.11,177.77 1897.41,178.87 1898.32,179.96"/>
    </edge>
    <edge id=":19_3" function="internal">
        <lane id=":19_3_0" index="0" speed="27.94" length="8.13" shape="1898.32,175.58 1896.35,177.66 1895.33,179.50 1895.24,181.08 1896.10,182.40"/>
    </edge>
    <edge id=":2_0" function="internal">
        <lane id=":2_0_0" index="0" speed="27.94" length="4.82" shape="1258.70,-1.01 1260.11,-1.48 1261.01,-1.30 1261.41,-0.47 1261.30,1.01"/>
    </edge>
    <edge id=":20_0" function="internal">
        <lane id=":20_0_0" index="0" speed="27.94" length="6.68" shape="2812.39,205.99 2812.02,212.66"/>
    </edge>
    <edge id=":20_1" function="internal">
        <lane id=":20_1_0" index="0" speed="27.94" length="6.74" shape="2812.39,205.99 2808.86,211.73"/>
    </edge>
    <edge id=":20_2" function="internal">
        <lane id=":20_2_0" index="0" speed="27.94" length="3.65" shape="2805.69,210.80 2805.89,207.15"/>
    </edge>
    <edge id=":20_3" function="internal">
        <lane id=":20_3_0" index="0" speed="27.94" length="5.46" shape="2805.69,210.80 2809.14,206.57"/>
    </edge>
    <edge id=":21_0" function="internal">
        <lane id=":21_0_0" index="0" speed="27.94" length="16.24" shape="3683.47,180.18 3686.18,183.76 3687.02,187.29 3685.99,190.77 3683.08,194.19"/>
    </edge>
    <edge id=":21_1" function="internal">
        <lane id=":21_1_0" index="0" speed="27.94" length="13.55" shape="3683.47,180.18 3685.16,182.73 3685.30,185.51 3683.88,188.51 3680.90,191.72"/>
    </edge>
    <edge id=":21_2" function="internal">
        <lane id=":21_2_0" index="0" speed="27.94" length="5.08" shape="3678.71,189.25 3679.62,188.18 3679.94,187.09 3679.68,185.99 3678.83,184.87"/>
    </edge>
    <edge id=":21_3" function="internal">
        <lane id=":21_3_0" index="0" speed="27.94" length="8.04" shape="3678.71,189.25 3680.69,187.21 3681.76,185.41 3681.91,183.85 3681.15,182.52"/>
    </edge>
    <edge id=":22_0" function="internal">
        <lane id=":22_0_0" index="0" speed="27.94" length="4.82" shape="-0.09,249.65 -1.28,248.75 -1.65,247.91 -1.19,247.11 0.09,246.35"/>
    </edge>
    <edge id=":23_0" function="internal">
        <lane id=":23_0_0" index="0" speed="27.94" length="8.05" shape="385.12,277.95 384.91,275.06 384.33,272.97 383.38,271.69 382.07,271.21"/>
    </edge>
    <edge id=":23_1" function="internal">
        <lane id=":23_1_0" index="0" speed="27.94" length="18.30" shape="385.12,277.95 385.89,272.22 387.82,268.02 390.16,264.66 392.16,261.43"/>
    </edge>
    <edge id=":23_2" function="internal">
        <lane id=":23_2_0" index="0" speed="27.94" length="17.79" shape="388.42,277.92 389.15,273.73 391.41,270.64 395.21,268.64 400.55,267.75"/>
    </edge>
    <edge id=":23_3" function="internal">
        <lane id=":23_3_0" index="0" speed="27.94" length="10.52" shape="400.93,274.34 396.89,274.76 394.01,275.49 392.29,276.53 391.72,277.89"/>
    </edge>
    <edge id=":23_4" function="internal">
        <lane id=":23_4_0" index="0" speed="27.94" length="19.21" shape="400.93,274.34 394.66,274.12 389.79,273.08 385.78,271.89 382.07,271.21"/>
    </edge>
    <edge id=":23_5" function="internal">
        <lane id=":23_5_0" index="0" speed="27.94" length="12.53" shape="400.74,271.04 395.18,270.73 391.90,269.02 390.89,265.92"/>
    </edge>
    <edge id=":23_12" function="internal">
        <lane id=":23_12_0" index="0" speed="27.94" length="4.67" shape="390.89,265.92 392.16,261.43"/>
    </edge>
    <edge id=":23_6" function="internal">
        <lane id=":23_6_0" index="0" speed="27.94" length="5.76" shape="398.15,264.20 397.64,265.84 397.87,266.98 398.84,267.62 400.55,267.75"/>
    </edge>
    <edge id=":23_7" function="internal">
        <lane id=":23_7_0" index="0" speed="27.94" length="15.29" shape="398.15,264.20 395.79,268.53 393.72,271.74 392.26,274.60 391.72,277.89"/>
    </edge>
    <edge id=":23_8" function="internal">
        <lane id=":23_8_0" index="0" speed="27.94" length="16.60" shape="395.15,262.81 392.79,266.67 389.82,269.36 386.24,270.87 382.07,271.21"/>
    </edge>
    <edge id=":23_9" function="internal">
        <lane id=":23_9_0" index="0" speed="27.94" length="10.78" shape="382.44,264.62 386.06,264.59 388.88,264.04 390.92,262.99 392.16,261.43"/>
    </edge>
    <edge id=":23_10" function="internal">
        <lane id=":23_10_0" index="0" speed="27.94" length="18.43" shape="382.44,264.62 388.44,265.36 393.07,266.48 396.91,267.45 400.55,267.75"/>
    </edge>
    <edge id=":23_11" function="internal">
        <lane id=":23_11_0" index="0" speed="27.94" length="10.77" shape="382.25,267.91 386.36,268.73 389.31,270.67 390.86,273.31"/>
    </edge>
    <edge id=":23_13" function="internal">
        <lane id=":23_13_0" index="0" speed="27.94" length="4.69" shape="390.86,273.31 391.10,273.72 391.72,277.89"/>
    </edge>
    <edge id=":24_0" function="internal">
        <lane id=":24_0_0" index="0" speed="27.94" length="3.17" shape="809.61,251.34 806.44,251.35"/>
    </edge>
    <edge id=":24_1" function="internal">
        <lane id=":24_1_0" index="0" speed="27.94" length="4.70" shape="809.61,251.34 806.25,248.05"/>
    </edge>
    <edge id=":24_2" function="internal">
        <lane id=":24_2_0" index="0" speed="27.94" length="3.90" shape="806.06,244.76 809.96,244.75"/>
    </edge>
    <edge id=":24_3" function="internal">
        <lane id=":24_3_0" index="0" speed="27.94" length="4.97" shape="806.06,244.76 809.79,248.04"/>
    </edge>
    <edge id=":25_0" function="internal">
        <lane id=":25_0_0" index="0" speed="27.94" length="18.74" shape="1204.73,275.16 1197.65,275.28 1192.28,275.85 1188.62,276.89 1186.68,278.38"/>
    </edge>
    <edge id=":25_1" function="internal">
        <lane id=":25_1_0" index="0" speed="27.94" length="25.97" shape="1204.73,275.16 1197.22,274.50 1190.05,273.16 1183.82,271.80 1179.12,271.07"/>
    </edge>
    <edge id=":25_2" function="internal">
        <lane id=":25_2_0" index="0" speed="27.94" length="13.73" shape="1204.78,271.86 1197.27,271.00 1193.81,268.71 1194.13,266.72"/>
    </edge>
    <edge id=":25_12" function="internal">
        <lane id=":25_12_0" index="0" speed="27.94" length="8.71" shape="1194.13,266.72 1194.40,264.98 1199.04,259.80"/>
    </edge>
    <edge id=":25_3" function="internal">
        <lane id=":25_3_0" index="0" speed="27.94" length="6.86" shape="1203.41,264.75 1201.92,266.38 1201.66,267.57 1202.63,268.29 1204.83,268.56"/>
    </edge>
    <edge id=":25_4" function="internal">
        <lane id=":25_4_0" index="0" speed="27.94" length="21.65" shape="1203.41,264.75 1198.01,269.08 1193.24,272.46 1189.36,275.40 1186.68,278.38"/>
    </edge>
    <edge id=":25_5" function="internal">
        <lane id=":25_5_0" index="0" speed="27.94" length="24.26" shape="1201.23,262.27 1195.32,266.48 1189.24,269.26 1183.63,270.74 1179.12,271.07"/>
    </edge>
    <edge id=":25_6" function="internal">
        <lane id=":25_6_0" index="0" speed="27.94" length="20.60" shape="1179.47,264.48 1186.22,264.44 1191.60,263.58 1195.81,262.01 1199.04,259.80"/>
    </edge>
    <edge id=":25_7" function="internal">
        <lane id=":25_7_0" index="0" speed="27.94" length="25.70" shape="1179.47,264.48 1186.95,265.33 1194.02,266.69 1200.16,267.97 1204.83,268.56"/>
    </edge>
    <edge id=":25_8" function="internal">
        <lane id=":25_8_0" index="0" speed="27.94" length="11.38" shape="1179.30,267.78 1184.86,268.71 1187.94,270.79 1188.32,272.78"/>
    </edge>
    <edge id=":25_13" function="internal">
        <lane id=":25_13_0" index="0" speed="27.94" length="6.00" shape="1188.32,272.78 1188.55,274.01 1186.68,278.38"/>
    </edge>
    <edge id=":25_9" function="internal">
        <lane id=":25_9_0" index="0" speed="27.94" length="5.79" shape="1181.09,274.87 1181.81,273.29 1181.72,272.13 1180.83,271.39 1179.12,271.07"/>
    </edge>
    <edge id=":25_10" function="internal">
        <lane id=":25_10_0" index="0" speed="27.94" length="23.62" shape="1181.09,274.87 1185.61,269.41 1190.66,265.40 1195.41,262.36 1199.04,259.80"/>
    </edge>
    <edge id=":25_11" function="internal">
        <lane id=":25_11_0" index="0" speed="27.94" length="23.41" shape="1183.89,276.63 1187.15,273.01 1191.73,270.47 1197.62,268.98 1204.83,268.56"/>
    </edge>
    <edge id=":26_0" function="internal">
        <lane id=":26_0_0" index="0" speed="27.94" length="4.49" shape="1685.47,278.62 1682.43,281.93"/>
    </edge>
    <edge id=":26_1" function="internal">
        <lane id=":26_1_0" index="0" speed="27.94" length="2.99" shape="1685.47,278.62 1682.48,278.63"/>
    </edge>
    <edge id=":26_2" function="internal">
        <lane id=":26_2_0" index="0" speed="27.94" length="4.33" shape="1682.53,275.33 1685.32,272.02"/>
    </edge>
    <edge id=":26_3" function="internal">
        <lane id=":26_3_0" index="0" speed="27.94" length="2.87" shape="1682.53,275.33 1685.40,275.32"/>
    </edge>
    <edge id=":27_0" function="internal">
        <lane id=":27_0_0" index="0" speed="27.94" length="10.77" shape="1989.27,274.93 1986.29,275.27 1984.47,276.45 1982.92,278.30 1980.75,280.64"/>
    </edge>
    <edge id=":27_1" function="internal">
        <lane id=":27_1_0" index="0" speed="27.94" length="14.81" shape="1989.27,274.93 1984.60,274.34 1981.15,273.32 1978.14,272.37 1974.81,272.00"/>
    </edge>
    <edge id=":27_2" function="internal">
        <lane id=":27_2_0" index="0" speed="27.94" length="15.79" shape="1989.38,271.63 1984.98,270.41 1982.37,267.74 1980.47,264.48 1978.22,261.52"/>
    </edge>
    <edge id=":27_3" function="internal">
        <lane id=":27_3_0" index="0" speed="27.94" length="14.22" shape="1982.66,256.64 1985.14,260.36 1986.08,264.13 1987.03,267.07 1989.50,268.33"/>
    </edge>
    <edge id=":27_4" function="internal">
        <lane id=":27_4_0" index="0" speed="27.94" length="13.23" shape="1982.66,256.64 1987.13,262.31 1988.31,268.21"/>
    </edge>
    <edge id=":27_12" function="internal">
        <lane id=":27_12_0" index="0" speed="27.94" length="14.80" shape="1988.31,268.21 1986.18,274.31 1980.75,280.64"/>
    </edge>
    <edge id=":27_5" function="internal">
        <lane id=":27_5_0" index="0" speed="27.94" length="10.40" shape="1980.44,259.08 1985.24,264.57 1985.75,267.64"/>
    </edge>
    <edge id=":27_13" function="internal">
        <lane id=":27_13_0" index="0" speed="27.94" length="12.86" shape="1985.75,267.64 1985.89,268.55 1982.42,271.02 1974.81,272.00"/>
    </edge>
    <edge id=":27_6" function="internal">
        <lane id=":27_6_0" index="0" speed="27.94" length="8.18" shape="1974.66,265.40 1977.74,265.09 1979.37,264.34 1979.53,263.15 1978.22,261.52"/>
    </edge>
    <edge id=":27_7" function="internal">
        <lane id=":27_7_0" index="0" speed="27.94" length="15.20" shape="1974.66,265.40 1979.46,265.76 1983.04,266.74 1986.13,267.78 1989.50,268.33"/>
    </edge>
    <edge id=":27_8" function="internal">
        <lane id=":27_8_0" index="0" speed="27.94" length="6.09" shape="1974.73,268.70 1980.80,269.15"/>
    </edge>
    <edge id=":27_14" function="internal">
        <lane id=":27_14_0" index="0" speed="27.94" length="16.88" shape="1980.80,269.15 1982.48,269.28 1986.06,271.46 1985.48,275.25 1980.75,280.64"/>
    </edge>
    <edge id=":27_9" function="internal">
        <lane id=":27_9_0" index="0" speed="27.94" length="6.97" shape="1976.31,275.76 1977.82,274.06 1978.07,272.87 1977.07,272.18 1974.81,272.00"/>
    </edge>
    <edge id=":27_10" function="internal">
        <lane id=":27_10_0" index="0" speed="27.94" length="16.66" shape="1976.31,275.76 1979.72,271.87 1981.18,268.21 1980.68,264.76 1978.22,261.52"/>
    </edge>
    <edge id=":27_11" function="internal">
        <lane id=":27_11_0" index="0" speed="27.94" length="5.97" shape="1978.53,278.20 1981.84,274.54 1982.45,273.71"/>
    </edge>
    <edge id=":27_15" function="internal">
        <lane id=":27_15_0" index="0" speed="27.94" length="9.26" shape="1982.45,273.71 1984.19,271.34 1986.44,269.10 1989.50,268.33"/>
    </edge>
    <edge id=":28_0" function="internal">
        <lane id=":28_0_0" index="0" speed="27.94" length="3.47" shape="2248.46,283.91 2244.99,283.89"/>
    </edge>
    <edge id=":28_1" function="internal">
        <lane id=":28_1_0" index="0" speed="27.94" length="4.72" shape="2248.46,283.91 2245.11,280.59"/>
    </edge>
    <edge id=":28_2" function="internal">
        <lane id=":28_2_0" index="0" speed="27.94" length="3.09" shape="2245.22,277.29 2248.31,277.31"/>
    </edge>
    <edge id=":28_3" function="internal">
        <lane id=":28_3_0" index="0" speed="27.94" length="4.59" shape="2245.22,277.29 2248.39,280.61"/>
    </edge>
    <edge id=":29_0" function="internal">
        <lane id=":29_0_0" index="0" speed="27.94" length="9.60" shape="2799.57,274.69 2795.96,274.97 2793.36,275.60 2791.76,276.56 2791.16,277.87"/>
    </edge>
    <edge id=":29_1" function="internal">
        <lane id=":29_1_0" index="0" speed="27.94" length="18.17" shape="2799.57,274.69 2793.66,274.33 2789.11,273.32 2785.32,272.27 2781.69,271.84"/>
    </edge>
    <edge id=":29_2" function="internal">
        <lane id=":29_2_0" index="0" speed="27.94" length="5.56" shape="2799.48,271.39 2794.53,270.96 2794.01,270.69"/>
    </edge>
    <edge id=":29_12" function="internal">
        <lane id=":29_12_0" index="0" speed="27.94" length="10.12" shape="2794.01,270.69 2791.38,269.33 2790.03,266.51 2790.49,262.49"/>
    </edge>
    <edge id=":29_3" function="internal">
        <lane id=":29_3_0" index="0" speed="27.94" length="5.65" shape="2796.82,264.36 2796.56,266.03 2796.90,267.21 2797.84,267.90 2799.39,268.10"/>
    </edge>
    <edge id=":29_4" function="internal">
        <lane id=":29_4_0" index="0" speed="27.94" length="14.74" shape="2796.82,264.36 2795.11,268.73 2793.33,271.88 2791.89,274.64 2791.16,277.87"/>
    </edge>
    <edge id=":29_5" function="internal">
        <lane id=":29_5_0" index="0" speed="27.94" length="3.59" shape="2793.65,263.43 2792.16,266.69"/>
    </edge>
    <edge id=":29_13" function="internal">
        <lane id=":29_13_0" index="0" speed="27.94" length="12.17" shape="2792.16,266.69 2792.00,267.02 2789.46,269.63 2786.02,271.23 2781.69,271.84"/>
    </edge>
    <edge id=":29_6" function="internal">
        <lane id=":29_6_0" index="0" speed="27.94" length="9.77" shape="2781.54,265.24 2785.17,265.00 2787.87,264.46 2789.65,263.63 2790.49,262.49"/>
    </edge>
    <edge id=":29_7" function="internal">
        <lane id=":29_7_0" index="0" speed="27.94" length="18.14" shape="2781.54,265.24 2787.44,265.62 2791.98,266.64 2795.76,267.68 2799.39,268.10"/>
    </edge>
    <edge id=":29_8" function="internal">
        <lane id=":29_8_0" index="0" speed="27.94" length="5.39" shape="2781.61,268.54 2786.02,269.04 2786.85,269.51"/>
    </edge>
    <edge id=":29_14" function="internal">
        <lane id=":29_14_0" index="0" speed="27.94" length="10.15" shape="2786.85,269.51 2789.07,270.76 2790.79,273.70 2791.16,277.87"/>
    </edge>
    <edge id=":29_9" function="internal">
        <lane id=":29_9_0" index="0" speed="27.94" length="7.16" shape="2784.57,277.46 2784.53,274.97 2784.03,273.21 2783.08,272.16 2781.69,271.84"/>
    </edge>
    <edge id=":29_10" function="internal">
        <lane id=":29_10_0" index="0" speed="27.94" length="16.25" shape="2784.57,277.46 2785.51,272.41 2787.19,268.76 2789.04,265.73 2790.49,262.49"/>
    </edge>
    <edge id=":29_11" function="internal">
        <lane id=":29_11_0" index="0" speed="27.94" length="4.56" shape="2787.87,277.67 2788.81,273.59 2789.03,273.29"/>
    </edge>
    <edge id=":29_15" function="internal">
        <lane id=":29_15_0" index="0" speed="27.94" length="12.18" shape="2789.03,273.29 2791.04,270.64 2794.57,268.80 2799.39,268.10"/>
    </edge>
    <edge id=":3_0" function="internal">