<?xml version="1.0" encoding="UTF-8"?>

<!-- generated on 08/06/13 16:55:34 by SUMO netconvert Version 0.16.0
<?xml version="1.0" encoding="UTF-8"?>

<configuration xmlns:xsi="http://www.w3.org/2001/XMLSchema-instance" xsi:noNamespaceSchemaLocation="http://sumo.sf.net/xsd/netconvertConfiguration.xsd">

    <input>
        <node-files value="nodes.xml"/>
        <edge-files value="edges.xml"/>
        <connection-files value="connections.xml"/>
        <type-files value="types.xml"/>
    </input>

    <output>
        <output-file value="net.xml"/>
    </output>

</configuration>
-->

<net version="0.13" xmlns:xsi="http://www.w3.org/2001/XMLSchema-instance" xsi:noNamespaceSchemaLocation="http://sumo.sf.net/xsd/net_file.xsd">

    <location netOffset="-62.00,0.00" convBoundary="0.00,0.00,3674.00,3069.00" origBoundary="62.00,0.00,3736.00,3069.00" projParameter="!"/>

    <edge id=":1_0" function="internal">
        <lane id=":1_0_0" index="0" speed="27.94" length="4.82" shape="539.35,186.99 540.18,185.76 541.01,185.35 541.83,185.77 542.65,187.01"/>
    </edge>
    <edge id=":10_0" function="internal">
        <lane id=":10_0_0" index="0" speed="27.94" length="4.82" shape="3673.83,671.36 3675.14,672.05 3675.64,672.83 3675.32,673.69 3674.17,674.64"/>
    </edge>
    <edge id=":11_0" function="internal">
        <lane id=":11_0_0" index="0" speed="27.94" length="4.49" shape="547.63,1311.51 550.94,1314.55"/>
    </edge>
    <edge id=":11_1" function="internal">
        <lane id=":11_1_0" index="0" speed="27.94" length="3.01" shape="547.63,1311.51 547.64,1314.52"/>
    </edge>
    <edge id=":11_2" function="internal">
        <lane id=":11_2_0" index="0" speed="27.94" length="4.39" shape="544.34,1314.49 541.03,1311.60"/>
    </edge>
    <edge id=":11_3" function="internal">
        <lane id=":11_3_0" index="0" speed="27.94" length="2.94" shape="544.34,1314.49 544.33,1311.56"/>
    </edge>
    <edge id=":12_0" function="internal">
        <lane id=":12_0_0" index="0" speed="27.94" length="5.41" shape="1625.28,1365.57 1625.41,1360.16"/>
    </edge>
    <edge id=":12_1" function="internal">
        <lane id=":12_1_0" index="0" speed="27.94" length="5.90" shape="1625.28,1365.57 1628.66,1360.74"/>
    </edge>
    <edge id=":12_2" function="internal">
        <lane id=":12_2_0" index="0" speed="27.94" length="3.44" shape="1631.91,1361.31 1631.83,1364.75"/>
    </edge>
    <edge id=":12_3" function="internal">
        <lane id=":12_3_0" index="0" speed="27.94" length="5.11" shape="1631.91,1361.31 1628.55,1365.16"/>
    </edge>
    <edge id=":13_0" function="internal">
        <lane id=":13_0_0" index="0" speed="27.94" length="6.12" shape="3088.73,1529.47 3088.69,1535.59"/>
    </edge>
    <edge id=":13_1" function="internal">
        <lane id=":13_1_0" index="0" speed="27.94" length="6.37" shape="3088.73,1529.47 3085.46,1534.93"/>
    </edge>
    <edge id=":13_2" function="internal">
        <lane id=":13_2_0" index="0" speed="27.94" length="3.56" shape="3082.22,1534.27 3082.24,1530.71"/>
    </edge>
    <edge id=":13_3" function="internal">
        <lane id=":13_3_0" index="0" speed="27.94" length="5.31" shape="3082.22,1534.27 3085.48,1530.09"/>
    </edge>
    <edge id=":14_0" function="internal">
        <lane id=":14_0_0" index="0" speed="27.94" length="4.82" shape="86.08,2272.65 84.80,2271.88 84.35,2271.08 84.73,2270.23 85.92,2269.35"/>
    </edge>
    <edge id=":15_0" function="internal">
        <lane id=":15_0_0" index="0" speed="27.94" length="8.04" shape="545.34,2255.62 542.45,2255.55 540.32,2255.92 538.95,2256.73 538.32,2257.98"/>
    </edge>
    <edge id=":15_1" function="internal">
        <lane id=":15_1_0" index="0" speed="27.94" length="16.61" shape="545.34,2255.62 540.04,2254.72 536.04,2253.48 532.65,2252.42 529.17,2252.06"/>
    </edge>
    <edge id=":15_2" function="internal">
        <lane id=":15_2_0" index="0" speed="27.94" length="4.79" shape="545.63,2252.34 541.57,2251.39 541.06,2251.03"/>
    </edge>
    <edge id=":15_12" function="internal">
        <lane id=":15_12_0" index="0" speed="27.94" length="10.64" shape="541.06,2251.03 538.68,2249.36 536.96,2246.27 536.42,2242.11"/>
    </edge>
    <edge id=":15_3" function="internal">
        <lane id=":15_3_0" index="0" speed="27.94" length="8.11" shape="543.02,2242.16 543.18,2245.08 543.72,2247.20 544.63,2248.52 545.93,2249.05"/>
    </edge>
    <edge id=":15_4" function="internal">
        <lane id=":15_4_0" index="0" speed="27.94" length="16.63" shape="543.02,2242.16 542.37,2247.42 540.96,2251.32 539.40,2254.59 538.32,2257.98"/>
    </edge>
    <edge id=":15_5" function="internal">
        <lane id=":15_5_0" index="0" speed="27.94" length="4.94" shape="539.72,2242.13 539.03,2246.29 538.63,2246.90"/>
    </edge>
    <edge id=":15_13" function="internal">
        <lane id=":15_13_0" index="0" speed="27.94" length="11.37" shape="538.63,2246.90 537.04,2249.34 533.76,2251.26 529.17,2252.06"/>
    </edge>
    <edge id=":15_6" function="internal">
        <lane id=":15_6_0" index="0" speed="27.94" length="8.93" shape="528.87,2245.47 532.16,2245.13 534.52,2244.45 535.94,2243.45 536.42,2242.11"/>
    </edge>
    <edge id=":15_7" function="internal">
        <lane id=":15_7_0" index="0" speed="27.94" length="17.54" shape="528.87,2245.47 534.51,2245.80 538.79,2246.94 542.38,2248.25 545.93,2249.05"/>
    </edge>
    <edge id=":15_8" function="internal">
        <lane id=":15_8_0" index="0" speed="27.94" length="5.26" shape="529.02,2248.77 533.71,2249.15 534.20,2249.41"/>
    </edge>
    <edge id=":15_14" function="internal">
        <lane id=":15_14_0" index="0" speed="27.94" length="10.52" shape="534.20,2249.41 536.82,2250.81 538.36,2253.76 538.32,2257.98"/>
    </edge>
    <edge id=":15_9" function="internal">
        <lane id=":15_9_0" index="0" speed="27.94" length="6.52" shape="531.81,2256.87 531.96,2254.71 531.58,2253.18 530.65,2252.30 529.17,2252.06"/>
    </edge>
    <edge id=":15_10" function="internal">
        <lane id=":15_10_0" index="0" speed="27.94" length="15.54" shape="531.81,2256.87 533.07,2252.05 534.58,2248.50 535.86,2245.45 536.42,2242.11"/>
    </edge>
    <edge id=":15_11" function="internal">
        <lane id=":15_11_0" index="0" speed="27.94" length="4.06" shape="535.07,2257.43 536.30,2253.56"/>
    </edge>
    <edge id=":15_15" function="internal">
        <lane id=":15_15_0" index="0" speed="27.94" length="11.32" shape="536.30,2253.56 536.33,2253.45 538.56,2250.73 541.76,2249.26 545.93,2249.05"/>
    </edge>
    <edge id=":16_0" function="internal">
        <lane id=":16_0_0" index="0" speed="27.94" length="4.87" shape="1266.23,2319.36 1261.36,2319.49"/>
    </edge>
    <edge id=":16_1" function="internal">
        <lane id=":16_1_0" index="0" speed="27.94" length="5.56" shape="1266.23,2319.36 1261.65,2316.20"/>
    </edge>
    <edge id=":16_2" function="internal">
        <lane id=":16_2_0" index="0" speed="27.94" length="3.35" shape="1261.95,2312.91 1265.30,2312.82"/>
    </edge>
    <edge id=":16_3" function="internal">
        <lane id=":16_3_0" index="0" speed="27.94" length="4.97" shape="1261.95,2312.91 1265.76,2316.09"/>
    </edge>
    <edge id=":17_0" function="internal">
        <lane id=":17_0_0" index="0" speed="27.94" length="11.17" shape="1747.79,2252.17 1743.79,2253.54 1740.86,2254.88 1739.01,2256.16 1738.23,2257.41"/>
    </edge>
    <edge id=":17_1" function="internal">
        <lane id=":17_1_0" index="0" speed="27.94" length="19.17" shape="1747.79,2252.17 1741.67,2253.38 1736.72,2253.36 1732.54,2252.96 1728.76,2252.99"/>
    </edge>
    <edge id=":17_2" function="internal">
        <lane id=":17_2_0" index="0" speed="27.94" length="5.78" shape="1746.82,2249.02 1742.27,2249.77 1741.13,2249.48"/>
    </edge>
    <edge id=":17_12" function="internal">
        <lane id=":17_12_0" index="0" speed="27.94" length="10.05" shape="1741.13,2249.48 1738.85,2248.90 1736.55,2246.40 1735.37,2242.27"/>
    </edge>
    <edge id=":17_3" function="internal">
        <lane id=":17_3_0" index="0" speed="27.94" length="6.88" shape="1741.92,2241.45 1742.42,2243.76 1743.24,2245.26 1744.38,2245.96 1745.85,2245.86"/>
    </edge>
    <edge id=":17_4" function="internal">
        <lane id=":17_4_0" index="0" speed="27.94" length="16.59" shape="1741.92,2241.45 1741.91,2246.68 1740.82,2250.64 1739.35,2253.99 1738.23,2257.41"/>
    </edge>
    <edge id=":17_5" function="internal">
        <lane id=":17_5_0" index="0" speed="27.94" length="4.39" shape="1738.64,2241.86 1738.47,2246.14 1738.42,2246.23"/>
    </edge>
    <edge id=":17_13" function="internal">
        <lane id=":17_13_0" index="0" speed="27.94" length="12.49" shape="1738.42,2246.23 1736.77,2249.42 1733.53,2251.70 1728.76,2252.99"/>
    </edge>
    <edge id=":17_6" function="internal">
        <lane id=":17_6_0" index="0" speed="27.94" length="9.33" shape="1727.82,2246.46 1731.27,2245.77 1733.67,2244.84 1735.04,2243.68 1735.37,2242.27"/>
    </edge>
    <edge id=":17_7" function="internal">
        <lane id=":17_7_0" index="0" speed="27.94" length="18.09" shape="1727.82,2246.46 1733.73,2246.03 1738.39,2246.23 1742.27,2246.40 1745.85,2245.86"/>
    </edge>
    <edge id=":17_8" function="internal">
        <lane id=":17_8_0" index="0" speed="27.94" length="5.52" shape="1728.29,2249.73 1733.33,2249.57 1733.78,2249.74"/>
    </edge>
    <edge id=":17_14" function="internal">
        <lane id=":17_14_0" index="0" speed="27.94" length="10.15" shape="1733.78,2249.74 1736.66,2250.80 1738.30,2253.42 1738.23,2257.41"/>
    </edge>
    <edge id=":17_9" function="internal">
        <lane id=":17_9_0" index="0" speed="27.94" length="5.46" shape="1731.75,2256.14 1731.84,2254.56 1731.37,2253.51 1730.34,2252.99 1728.76,2252.99"/>
    </edge>
    <edge id=":17_10" function="internal">
        <lane id=":17_10_0" index="0" speed="27.94" length="14.45" shape="1731.75,2256.14 1732.99,2251.71 1734.31,2248.43 1735.26,2245.55 1735.37,2242.27"/>
    </edge>
    <edge id=":17_11" function="internal">
        <lane id=":17_11_0" index="0" speed="27.94" length="3.66" shape="1734.99,2256.78 1736.18,2253.31"/>
    </edge>
    <edge id=":17_15" function="internal">
        <lane id=":17_15_0" index="0" speed="27.94" length="12.55" shape="1736.18,2253.31 1736.26,2253.07 1738.50,2250.02 1741.69,2247.61 1745.85,2245.86"/>
    </edge>
    <edge id=":18_0" function="internal">
        <lane id=":18_0_0" index="0" speed="27.94" length="3.74" shape="2270.27,2092.67 2266.53,2092.79"/>
    </edge>
    <edge id=":18_1" function="internal">
        <lane id=":18_1_0" index="0" speed="27.94" length="5.60" shape="2270.27,2092.67 2265.56,2089.63"/>
    </edge>
    <edge id=":18_2" function="internal">
        <lane id=":18_2_0" index="0" speed="27.94" length="7.20" shape="2264.60,2086.48 2271.80,2086.24"/>
    </edge>
    <edge id=":18_3" function="internal">
        <lane id=":18_3_0" index="0" speed="27.94" length="7.09" shape="2264.60,2086.48 2271.03,2089.46"/>
    </edge>
    <edge id=":19_0" function="internal">
        <lane id=":19_0_0" index="0" speed="27.94" length="9.75" shape="2934.55,2258.48 2933.75,2254.96 2932.82,2252.36 2931.77,2250.69 2930.59,2249.93"/>
    </edge>
    <edge id=":19_1" function="internal">
        <lane id=":19_1_0" index="0" speed="27.94" length="18.15" shape="2934.55,2258.48 2934.28,2252.74 2935.36,2248.28 2936.94,2244.56 2938.15,2240.99"/>
    </edge>
    <edge id=":19_2" function="internal">
        <lane id=":19_2_0" index="0" speed="27.94" length="5.83" shape="2937.80,2257.88 2937.79,2253.70 2938.50,2252.20"/>
    </edge>
    <edge id=":19_12" function="internal">
        <lane id=":19_12_0" index="0" speed="27.94" length="12.07" shape="2938.50,2252.20 2939.45,2250.20 2942.79,2247.35 2947.80,2245.17"/>
    </edge>
    <edge id=":19_3" function="internal">
        <lane id=":19_3_0" index="0" speed="27.94" length="11.06" shape="2949.79,2251.47 2945.76,2252.93 2942.96,2254.38 2941.39,2255.83 2941.04,2257.27"/>
    </edge>
    <edge id=":19_4" function="internal">
        <lane id=":19_4_0" index="0" speed="27.94" length="19.64" shape="2949.79,2251.47 2943.60,2252.61 2938.57,2252.22 2934.35,2251.07 2930.59,2249.93"/>
    </edge>
    <edge id=":19_5" function="internal">
        <lane id=":19_5_0" index="0" speed="27.94" length="6.42" shape="2948.79,2248.32 2943.26,2249.40 2942.50,2249.22"/>
    </edge>
    <edge id=":19_13" function="internal">
        <lane id=":19_13_0" index="0" speed="27.94" length="10.95" shape="2942.50,2249.22 2939.65,2248.54 2937.94,2245.74 2938.15,2240.99"/>
    </edge>
    <edge id=":19_6" function="internal">
        <lane id=":19_6_0" index="0" speed="27.94" length="5.79" shape="2944.62,2242.31 2944.50,2244.04 2944.99,2245.09 2946.09,2245.47 2947.80,2245.17"/>
    </edge>
    <edge id=":19_7" function="internal">
        <lane id=":19_7_0" index="0" speed="27.94" length="15.52" shape="2944.62,2242.31 2943.28,2247.14 2941.91,2250.77 2940.99,2253.92 2941.04,2257.27"/>
    </edge>
    <edge id=":19_8" function="internal">
        <lane id=":19_8_0" index="0" speed="27.94" length="3.95" shape="2941.39,2241.65 2940.14,2245.40"/>
    </edge>
    <edge id=":19_14" function="internal">
        <lane id=":19_14_0" index="0" speed="27.94" length="11.65" shape="2940.14,2245.40 2939.92,2246.05 2937.63,2248.90 2934.52,2250.19 2930.59,2249.93"/>
    </edge>
    <edge id=":19_9" function="internal">
        <lane id=":19_9_0" index="0" speed="27.94" length="7.44" shape="2932.12,2243.51 2934.47,2243.82 2936.26,2243.51 2937.49,2242.56 2938.15,2240.99"/>
    </edge>
    <edge id=":19_10" function="internal">
        <lane id=":19_10_0" index="0" speed="27.94" length="15.99" shape="2932.12,2243.51 2937.14,2244.75 2941.05,2245.59 2944.42,2245.81 2947.80,2245.17"/>
    </edge>
    <edge id=":19_11" function="internal">
        <lane id=":19_11_0" index="0" speed="27.94" length="4.33" shape="2931.36,2246.72 2934.99,2248.10 2935.34,2248.38"/>
    </edge>
    <edge id=":19_15" function="internal">
        <lane id=":19_15_0" index="0" speed="27.94" length="10.88" shape="2935.34,2248.38 2937.81,2250.32 2939.83,2253.37 2941.04,2257.27"/>
    </edge>
    <edge id=":2_0" function="internal">
        <lane id=":2_0_0" index="0" speed="27.94" length="4.82" shape="1587.38,0.32 1587.95,-1.05 1588.68,-1.62 1589.57,-1.37 1590.62,-0.32"/>
    </edge>
    <edge id=":20_0" function="internal">
        <lane id=":20_0_0" index="0" speed="27.94" length="4.82" shape="3529.50,2061.43 3530.93,2061.84 3531.57,2062.50 3531.43,2063.41 3530.50,2064.57"/>
    </edge>
    <edge id=":21_0" function="internal">
        <lane id=":21_0_0" index="0" speed="27.94" length="4.82" shape="400.63,3069.28 399.61,3070.36 398.72,3070.63 397.98,3070.08 397.37,3068.72"/>
    </edge>
    <edge id=":22_0" function="internal">
        <lane id=":22_0_0" index="0" speed="27.94" length="4.82" shape="1590.62,3011.32 1589.57,3012.37 1588.68,3012.62 1587.95,3012.06 1587.38,3010.68"/>
    </edge>
    <edge id=":23_0" function="internal">
        <lane id=":23_0_0" index="0" speed="27.94" length="4.82" shape="3086.62,3034.70 3086.04,3036.06 3085.30,3036.62 3084.42,3036.37 3083.38,3035.30"/>
    </edge>
    <edge id=":3_0" function="internal">
        <lane id=":3_0_0" index="0" speed="27.94" length="4.82" shape="3072.38,-0.29 3073.41,-1.36 3074.29,-1.62 3075.03,-1.07 3075.62,0.29"/>
    </edge>
    <edge id=":4_0" function="internal">
        <lane id=":4_0_0" index="0" speed="27.94" length="4.82" shape="-0.50,581.57 -1.43,580.41 -1.57,579.50 -0.93,578.84 0.50,578.43"/>
    </edge>
    <edge id=":5_0" function="internal">
        <lane id=":5_0_0" index="0" speed="27.94" length="9.17" shape="533.16,757.73 532.95,754.37 532.45,751.86 531.63,750.19 530.52,749.37"/>
    </edge>
    <edge id=":5_1" function="internal">
        <lane id=":5_1_0" index="0" speed="27.94" length="17.48" shape="533.16,757.73 533.61,752.09 534.72,747.79 535.86,744.18 536.40,740.63"/>
    </edge>
    <edge id=":5_2" function="internal">
        <lane id=":5_2_0" index="0" speed="27.94" length="5.32" shape="536.46,757.68 537.03,753.61 537.63,752.57"/>
    </edge>
    <edge id=":5_12" function="internal">
        <lane id=":5_12_0" index="0" speed="27.94" length="10.73" shape="537.63,752.57 538.85,750.48 541.95,748.29 546.30,747.05"/>
    </edge>
    <edge id=":5_3" function="internal">
        <lane id=":5_3_0" index="0" speed="27.94" length="9.14" shape="547.30,753.57 543.99,754.27 541.62,755.17 540.21,756.30 539.76,757.64"/>
    </edge>
    <edge id=":5_4" function="internal">
        <lane id=":5_4_0" index="0" speed="27.94" length="17.62" shape="547.30,753.57 541.75,753.68 537.49,752.53 533.95,750.85 530.52,749.37"/>
    </edge>
    <edge id=":5_5" function="internal">
        <lane id=":5_5_0" index="0" speed="27.94" length="5.40" shape="546.80,750.31 542.23,750.31 541.49,749.94"/>
    </edge>
    <edge id=":5_13" function="internal">
        <lane id=":5_13_0" index="0" speed="27.94" length="11.46" shape="541.49,749.94 538.97,748.70 537.03,745.47 536.40,740.63"/>
    </edge>
    <edge id=":5_6" function="internal">
        <lane id=":5_6_0" index="0" speed="27.94" length="8.15" shape="543.00,740.66 543.19,743.65 543.81,745.71 544.84,746.84 546.30,747.05"/>
    </edge>
    <edge id=":5_7" function="internal">
        <lane id=":5_7_0" index="0" speed="27.94" length="17.35" shape="543.00,740.66 542.46,746.26 541.34,750.51 540.23,754.09 539.76,757.64"/>
    </edge>
    <edge id=":5_8" function="internal">
        <lane id=":5_8_0" index="0" speed="27.94" length="5.09" shape="539.70,740.64 539.10,745.54 539.03,745.68"/>
    </edge>
    <edge id=":5_14" function="internal">
        <lane id=":5_14_0" index="0" speed="27.94" length="10.54" shape="539.03,745.68 537.37,748.63 534.51,749.90 530.52,749.37"/>
    </edge>
    <edge id=":5_9" function="internal">
        <lane id=":5_9_0" index="0" speed="27.94" length="5.70" shape="532.51,743.07 534.20,743.38 535.42,743.07 536.15,742.16 536.40,740.63"/>
    </edge>
    <edge id=":5_10" function="internal">
        <lane id=":5_10_0" index="0" speed="27.94" length="14.53" shape="532.51,743.07 536.86,744.71 540.12,746.16 543.02,747.06 546.30,747.05"/>
    </edge>
    <edge id=":5_11" function="internal">
        <lane id=":5_11_0" index="0" speed="27.94" length="3.56" shape="531.51,746.22 534.74,747.74"/>
    </edge>
    <edge id=":5_15" function="internal">
        <lane id=":5_15_0" index="0" speed="27.94" length="11.60" shape="534.74,747.74 535.07,747.90 537.63,750.36 539.20,753.60 539.76,757.64"/>
    </edge>
    <edge id=":6_0" function="internal">
        <lane id=":6_0_0" index="0" speed="27.94" length="3.55" shape="1268.36,643.09 1264.81,642.96"/>
    </edge>
    <edge id=":6_1" function="internal">
        <lane id=":6_1_0" index="0" speed="27.94" length="5.28" shape="1268.36,643.09 1264.31,639.70"/>
    </edge>
    <edge id=":6_2" function="internal">
        <lane id=":6_2_0" index="0" speed="27.94" length="6.04" shape="1263.81,636.44 1269.85,636.66"/>
    </edge>
    <edge id=":6_3" function="internal">
        <lane id=":6_3_0" index="0" speed="27.94" length="6.32" shape="1263.81,636.44 1269.11,639.87"/>
    </edge>
    <edge id=":7_0" function="internal">
        <lane id=":7_0_0" index="0" speed="27.94" length="6.64" shape="1743.67,756.65 1741.48,756.27 1739.83,756.45 1738.73,757.21 1738.17,758.52"/>
    </edge>
    <edge id=":7_1" function="internal">
        <lane id=":7_1_0" index="0" speed="27.94" length="15.53" shape="1743.67,756.65 1739.04,754.89 1735.77,752.90 1732.99,751.06 1729.82,749.80"/>
    </edge>
    <edge id=":7_2" function="internal">
        <lane id=":7_2_0" index="0" speed="27.94" length="4.75" shape="1744.53,753.46 1740.91,751.84 1740.33,751.30"/>
    </edge>
    <edge id=":7_12" function="internal">
        <lane id=":7_12_0" index="0" speed="27.94" length="12.71" shape="1740.33,751.30 1738.02,749.12 1735.85,745.30 1734.40,740.37"/>
    </edge>
    <edge id=":7_3" function="internal">
        <lane id=":7_3_0" index="0" speed="27.94" length="12.34" shape="1740.88,739.08 1741.94,743.74 1743.05,747.15 1744.20,749.33 1745.38,750.27"/>
    </edge>
    <edge id=":7_4" function="internal">
        <lane id=":7_4_0" index="0" speed="27.94" length="19.88" shape="1740.88,739.08 1741.38,745.49 1740.57,750.56 1739.23,754.76 1738.17,758.52"/>
    </edge>
    <edge id=":7_5" function="internal">
        <lane id=":7_5_0" index="0" speed="27.94" length="6.37" shape="1737.64,739.72 1738.08,745.03 1737.75,746.02"/>
    </edge>
    <edge id=":7_13" function="internal">
        <lane id=":7_13_0" index="0" speed="27.94" length="10.13" shape="1737.75,746.02 1736.92,748.47 1734.17,750.06 1729.82,749.80"/>
    </edge>
    <edge id=":7_6" function="internal">
        <lane id=":7_6_0" index="0" speed="27.94" length="5.62" shape="1731.31,743.37 1732.95,743.52 1734.02,743.07 1734.50,742.02 1734.40,740.37"/>
    </edge>
    <edge id=":7_7" function="internal">
        <lane id=":7_7_0" index="0" speed="27.94" length="15.76" shape="1731.31,743.37 1736.05,745.01 1739.40,747.00 1742.22,748.90 1745.38,750.27"/>
    </edge>
    <edge id=":7_8" function="internal">
        <lane id=":7_8_0" index="0" speed="27.94" length="3.56" shape="1730.56,746.59 1733.87,747.88"/>
    </edge>
    <edge id=":7_14" function="internal">
        <lane id=":7_14_0" index="0" speed="27.94" length="12.40" shape="1733.87,747.88 1734.54,748.14 1737.13,750.65 1738.34,754.11 1738.17,758.52"/>
    </edge>
    <edge id=":7_9" function="internal">
        <lane id=":7_9_0" index="0" speed="27.94" length="8.50" shape="1731.67,757.38 1732.01,754.33 1731.81,752.05 1731.08,750.54 1729.82,749.80"/>
    </edge>
    <edge id=":7_10" function="internal">
        <lane id=":7_10_0" index="0" speed="27.94" length="17.33" shape="1731.67,757.38 1732.87,751.83 1733.96,747.53 1734.60,743.90 1734.40,740.37"/>
    </edge>
    <edge id=":7_11" function="internal">
        <lane id=":7_11_0" index="0" speed="27.94" length="4.89" shape="1734.92,757.95 1736.24,753.72 1736.53,753.36"/>
    </edge>
    <edge id=":7_15" function="internal">
        <lane id=":7_15_0" index="0" speed="27.94" length="10.19" shape="1736.53,753.36 1738.42,751.03 1741.47,749.88 1745.38,750.27"/>
    </edge>
    <edge id=":8_0" function="internal">
        <lane id=":8_0_0" index="0" speed="27.94" length="6.58" shape="2228.78,885.48 2222.21,885.23"/>
    </edge>
    <edge id=":8_1" function="internal">
        <lane id=":8_1_0" index="0" speed="27.94" length="6.67" shape="2228.78,885.48 2223.06,882.04"/>
    </edge>
    <edge id=":8_2" function="internal">
        <lane id=":8_2_0" index="0" speed="27.94" length="3.64" shape="2223.92,878.85 2227.55,878.99"/>
    </edge>
    <edge id=":8_3" function="internal">
        <lane id=":8_3_0" index="0" speed="27.94" length="5.43" shape="2223.92,878.85 2228.17,882.23"/>
    </edge>
    <edge id=":9_0" function="internal">
        <lane id=":9_0_0" index="0" speed="27.94" length="8.13" shape="2934.71,759.13 2933.96,756.28 2933.00,754.33 2931.81,753.27 2930.40,753.11"/>
    </edge>
    <edge id=":9_1" function="internal">
        <lane id=":9_1_0" index="0" speed="27.94" length="17.09" shape="2934.71,759.13 2934.38,753.74 2935.26,749.59 2936.61,746.06 2937.67,742.55"/>
    </edge>
    <edge id=":9_2" function="internal">
        <lane id=":9_2_0" index="0" speed="27.94" length="4.99" shape="2937.95,758.51 2937.80,754.08 2938.03,753.57"/>
    </edge>
    <edge id=":9_12" function="internal">
        <lane id=":9_12_0" index="0" speed="27.94" length="11.72" shape="2938.03,753.57 2939.27,750.75 2942.35,748.52 2947.05,747.39"/>
    </edge>
    <edge id=":9_3" function="internal">
        <lane id=":9_3_0" index="0" speed="27.94" length="8.48" shape="2947.73,753.96 2944.64,754.49 2942.52,755.32 2941.37,756.45 2941.19,757.89"/>
    </edge>
    <edge id=":9_4" function="internal">
        <lane id=":9_4_0" index="0" speed="27.94" length="17.41" shape="2947.73,753.96 2942.08,754.08 2937.68,753.53 2933.97,752.98 2930.40,753.11"/>
    </edge>
    <edge id=":9_5" function="internal">
        <lane id=":9_5_0" index="0" speed="27.94" length="5.18" shape="2947.39,750.68 2942.51,750.62 2942.24,750.50"/>
    </edge>
    <edge id=":9_13" function="internal">
        <lane id=":9_13_0" index="0" speed="27.94" length="10.37" shape="2942.24,750.50 2939.26,749.24 2937.65,746.55 2937.67,742.55"/>
    </edge>
    <edge id=":9_6" function="internal">
        <lane id=":9_6_0" index="0" speed="27.94" length="5.74" shape="2944.17,743.73 2944.07,745.48 2944.52,746.67 2945.51,747.31 2947.05,747.39"/>
    </edge>
    <edge id=":9_7" function="internal">
        <lane id=":9_7_0" index="0" speed="27.94" length="14.60" shape="2944.17,743.73 2943.03,748.26 2941.84,751.64 2941.08,754.61 2941.19,757.89"/>
    </edge>
    <edge id=":9_8" function="internal">
        <lane id=":9_8_0" index="0" speed="27.94" length="3.67" shape="2940.92,743.14 2939.78,746.63"/>
    </edge>
    <edge id=":9_14" function="internal">
        <lane id=":9_14_0" index="0" speed="27.94" length="11.84" shape="2939.78,746.63 2939.70,746.87 2937.54,749.77 2934.44,751.85 2930.40,753.11"/>
    </edge>
    <edge id=":9_9" function="internal">
        <lane id=":9_9_0" index="0" speed="27.94" length="9.78" shape="2929.18,746.63 2932.72,745.80 2935.32,744.85 2936.97,743.77 2937.67,742.55"/>
    </edge>
    <edge id=":9_10" function="internal">
        <lane id=":9_10_0" index="0" speed="27.94" length="17.98" shape="2929.18,746.63 2934.98,746.12 2939.54,746.58 2943.39,747.26 2947.05,747.39"/>
    </edge>
    <edge id=":9_11" function="internal">
        <lane id=":9_11_0" index="0" speed="27.94" length="5.44" shape="2929.79,749.87 2934.07,749.70 2935.15,750.11"/>
    </edge>
    <edge id=":9_15" function="internal">
        <lane id=":9_15_0" index="0" speed="27.94" length="10.44" shape="2935.15,750.11 2937.40,750.98 2939.77,753.71 2941.19,757.89"/>
    </edge>

    <edge id="1" from="5" to="4" priority="3" type="1">
        <lane id="1_0" index="0" speed="22.89" length="556.90" shape="530.52,749.37 -0.50,581.57"/>
    </edge>
    <edge id="10" from="7" to="8" priority="3" type="1">
        <lane id="10_0" index="0" speed="22.89" length="495.51" shape="1745.38,750.27 2223.92,878.85"/>
    </edge>
    <edge id="11" from="7" to="12" priority="3" type="1">
        <lane id="11_0" index="0" speed="22.89" length="612.08" shape="1738.17,758.52 1631.91,1361.31"/>
    </edge>
    <edge id="12" from="7" to="2" priority="3" type="1">
        <lane id="12_0" index="0" speed="22.89" length="754.51" shape="1734.40,740.37 1587.38,0.32"/>
    </edge>
    <edge id="13" from="6" to="7" priority="3" type="2">
        <lane id="13_0" index="0" speed="33.00" length="473.63" shape="1269.85,636.66 1731.31,743.37"/>
        <lane id="13_1" index="1" speed="33.00" length="473.63" shape="1269.11,639.87 1730.56,746.59"/>
    </edge>
    <edge id="14" from="8" to="7" priority="3" type="2">
        <lane id="14_0" index="0" speed="33.00" length="495.51" shape="2222.21,885.23 1743.67,756.65"/>
        <lane id="14_1" index="1" speed="33.00" length="495.51" shape="2223.06,882.04 1744.53,753.46"/>
    </edge>
    <edge id="15" from="12" to="7" priority="3" type="2">
        <lane id="15_0" index="0" speed="33.00" length="612.08" shape="1625.41,1360.16 1731.67,757.38"/>
        <lane id="15_1" index="1" speed="33.00" length="612.08" shape="1628.66,1360.74 1734.92,757.95"/>
    </edge>
    <edge id="16" from="2" to="7" priority="3" type="2">
        <lane id="16_0" index="0" speed="33.00" length="754.51" shape="1593.86,-0.96 1740.88,739.08"/>
        <lane id="16_1" index="1" speed="33.00" length="754.51" shape="1590.62,-0.32 1737.64,739.72"/>
    </edge>
    <edge id="17" from="9" to="8" priority="3" type="1">
        <lane id="17_0" index="0" speed="22.89" length="714.00" shape="2930.40,753.11 2228.78,885.48"/>
    </edge>
    <edge id="18" from="9" to="10" priority="3" type="1">
        <lane id="18_0" index="0" speed="22.89" length="730.75" shape="2947.05,747.39 3673.83,671.36"/>
    </edge>
    <edge id="19" from="9" to="13" priority="3" type="1">
        <lane id="19_0" index="0" speed="22.89" length="785.56" shape="2941.19,757.89 3088.73,1529.47"/>
    </edge>
    <edge id="2" from="5" to="6" priority="3" type="1">
        <lane id="2_0" index="0" speed="22.89" length="725.99" shape="546.30,747.05 1263.81,636.44"/>
    </edge>
    <edge id="20" from="9" to="3" priority="3" type="1">
        <lane id="20_0" index="0" speed="22.89" length="754.96" shape="2937.67,742.55 3072.38,-0.29"/>
    </edge>
    <edge id="21" from="8" to="9" priority="3" type="2">
        <lane id="21_0" index="0" speed="33.00" length="714.00" shape="2227.55,878.99 2929.18,746.63"/>
        <lane id="21_1" index="1" speed="33.00" length="714.00" shape="2228.17,882.23 2929.79,749.87"/>
    </edge>
    <edge id="22" from="10" to="9" priority="3" type="2">
        <lane id="22_0" index="0" speed="33.00" length="730.75" shape="3674.52,677.92 2947.73,753.96"/>
        <lane id="22_1" index="1" speed="33.00" length="730.75" shape="3674.17,674.64 2947.39,750.68"/>
    </edge>
    <edge id="23" from="13" to="9" priority="3" type="2">
        <lane id="23_0" index="0" speed="33.00" length="785.56" shape="3082.24,1530.71 2934.71,759.13"/>
        <lane id="23_1" index="1" speed="33.00" length="785.56" shape="3085.48,1530.09 2937.95,758.51"/>
    </edge>
    <edge id="24" from="3" to="9" priority="3" type="2">