<?xml version="1.0" encoding="UTF-8"?>

<!-- generated on 08/27/13 18:03:48 by SUMO netgenerate Version 0.16.0
<?xml version="1.0" encoding="UTF-8"?>

<configuration xmlns:xsi="http://www.w3.org/2001/XMLSchema-instance" xsi:noNamespaceSchemaLocation="http://sumo.sf.net/xsd/netgenerateConfiguration.xsd">

    <grid_network>
        <grid value="true"/>
        <grid.number value="4"/>
    </grid_network>

    <output>
        <output-file value="guigui.net.xml"/>
    </output>

    <tls_building>
        <tls.guess value="true"/>
    </tls_building>

    <processing>
        <no-turnarounds value="true"/>
        <no-turnarounds.tls value="true"/>
    </processing>

</configuration>
-->

<net version="0.13" xmlns:xsi="http://www.w3.org/2001/XMLSchema-instance" xsi:noNamespaceSchemaLocation="http://sumo.sf.net/xsd/net_file.xsd">

    <location netOffset="0.00,0.00" convBoundary="0.00,0.00,300.00,300.00" origBoundary="0.00,0.00,300.00,300.00" projParameter="!"/>

    <edge id=":0/0_0" function="internal">
        <lane id=":0/0_0_0" index="0" speed="13.90" length="7.90" shape="-1.65,3.25 -1.34,1.11 -0.42,-0.42 1.11,-1.34 3.25,-1.65"/>
    </edge>
    <edge id=":0/0_1" function="internal">
        <lane id=":0/0_1_0" index="0" speed="13.90" length="2.58" shape="3.25,1.65 2.55,1.75 2.05,2.05 1.75,2.55 1.65,3.25"/>
    </edge>
    <edge id=":0/1_0" function="internal">
        <lane id=":0/1_0_0" index="0" speed="13.90" length="9.50" shape="-1.65,104.75 -1.65,95.25"/>
    </edge>
    <edge id=":0/1_1" function="internal">
        <lane id=":0/1_1_0" index="0" speed="13.90" length="7.14" shape="-1.65,104.75 -1.25,101.95 -0.05,99.95 1.65,98.93"/>
    </edge>
    <edge id=":0/1_6" function="internal">
        <lane id=":0/1_6_0" index="0" speed="13.90" length="3.18" shape="1.65,98.93 1.95,98.75 4.75,98.35"/>
    </edge>
    <edge id=":0/1_2" function="internal">
        <lane id=":0/1_2_0" index="0" speed="13.90" length="5.00" shape="4.75,101.65 3.39,101.84 2.42,102.43 1.84,103.39 1.65,104.75"/>
    </edge>
    <edge id=":0/1_3" function="internal">
        <lane id=":0/1_3_0" index="0" speed="13.90" length="3.18" shape="4.75,101.65 1.95,101.25 1.65,101.07"/>
    </edge>
    <edge id=":0/1_7" function="internal">
        <lane id=":0/1_7_0" index="0" speed="13.90" length="7.14" shape="1.65,101.07 -0.05,100.05 -1.25,98.05 -1.65,95.25"/>
    </edge>
    <edge id=":0/1_4" function="internal">
        <lane id=":0/1_4_0" index="0" speed="13.90" length="5.00" shape="1.65,95.25 1.84,96.61 2.42,97.57 3.39,98.16 4.75,98.35"/>
    </edge>
    <edge id=":0/1_5" function="internal">
        <lane id=":0/1_5_0" index="0" speed="13.90" length="9.50" shape="1.65,95.25 1.65,104.75"/>
    </edge>
    <edge id=":0/2_0" function="internal">
        <lane id=":0/2_0_0" index="0" speed="13.90" length="9.50" shape="-1.65,204.75 -1.65,195.25"/>
    </edge>
    <edge id=":0/2_1" function="internal">
        <lane id=":0/2_1_0" index="0" speed="13.90" length="7.14" shape="-1.65,204.75 -1.25,201.95 -0.05,199.95 1.65,198.93"/>
    </edge>
    <edge id=":0/2_6" function="internal">
        <lane id=":0/2_6_0" index="0" speed="13.90" length="3.18" shape="1.65,198.93 1.95,198.75 4.75,198.35"/>
    </edge>
    <edge id=":0/2_2" function="internal">
        <lane id=":0/2_2_0" index="0" speed="13.90" length="5.00" shape="4.75,201.65 3.39,201.84 2.42,202.43 1.84,203.39 1.65,204.75"/>
    </edge>
    <edge id=":0/2_3" function="internal">
        <lane id=":0/2_3_0" index="0" speed="13.90" length="3.18" shape="4.75,201.65 1.95,201.25 1.65,201.07"/>
    </edge>
    <edge id=":0/2_7" function="internal">
        <lane id=":0/2_7_0" index="0" speed="13.90" length="7.14" shape="1.65,201.07 -0.05,200.05 -1.25,198.05 -1.65,195.25"/>
    </edge>
    <edge id=":0/2_4" function="internal">
        <lane id=":0/2_4_0" index="0" speed="13.90" length="5.00" shape="1.65,195.25 1.84,196.61 2.42,197.58 3.39,198.16 4.75,198.35"/>
    </edge>
    <edge id=":0/2_5" function="internal">
        <lane id=":0/2_5_0" index="0" speed="13.90" length="9.50" shape="1.65,195.25 1.65,204.75"/>
    </edge>
    <edge id=":0/3_0" function="internal">
        <lane id=":0/3_0_0" index="0" speed="13.90" length="7.90" shape="3.25,301.65 1.11,301.34 -0.43,300.42 -1.34,298.89 -1.65,296.75"/>
    </edge>
    <edge id=":0/3_1" function="internal">
        <lane id=":0/3_1_0" index="0" speed="13.90" length="2.58" shape="1.65,296.75 1.75,297.45 2.05,297.95 2.55,298.25 3.25,298.35"/>
    </edge>
    <edge id=":1/0_0" function="internal">
        <lane id=":1/0_0_0" index="0" speed="13.90" length="5.00" shape="98.35,4.75 98.16,3.39 97.57,2.42 96.61,1.84 95.25,1.65"/>
    </edge>
    <edge id=":1/0_1" function="internal">
        <lane id=":1/0_1_0" index="0" speed="13.90" length="3.18" shape="98.35,4.75 98.75,1.95 98.93,1.65"/>
    </edge>
    <edge id=":1/0_6" function="internal">
        <lane id=":1/0_6_0" index="0" speed="13.90" length="7.14" shape="98.93,1.65 99.95,-0.05 101.95,-1.25 104.75,-1.65"/>
    </edge>
    <edge id=":1/0_2" function="internal">
        <lane id=":1/0_2_0" index="0" speed="13.90" length="5.00" shape="104.75,1.65 103.39,1.84 102.43,2.42 101.84,3.39 101.65,4.75"/>
    </edge>
    <edge id=":1/0_3" function="internal">
        <lane id=":1/0_3_0" index="0" speed="13.90" length="9.50" shape="104.75,1.65 95.25,1.65"/>
    </edge>
    <edge id=":1/0_4" function="internal">
        <lane id=":1/0_4_0" index="0" speed="13.90" length="9.50" shape="95.25,-1.65 104.75,-1.65"/>
    </edge>
    <edge id=":1/0_5" function="internal">
        <lane id=":1/0_5_0" index="0" speed="13.90" length="7.14" shape="95.25,-1.65 98.05,-1.25 100.05,-0.05 101.07,1.65"/>
    </edge>
    <edge id=":1/0_7" function="internal">
        <lane id=":1/0_7_0" index="0" speed="13.90" length="3.18" shape="101.07,1.65 101.25,1.95 101.65,4.75"/>
    </edge>
    <edge id=":1/1_0" function="internal">
        <lane id=":1/1_0_0" index="0" speed="13.90" length="5.00" shape="98.35,104.75 98.16,103.39 97.57,102.43 96.61,101.84 95.25,101.65"/>
    </edge>
    <edge id=":1/1_1" function="internal">
        <lane id=":1/1_1_0" index="0" speed="13.90" length="9.50" shape="98.35,104.75 98.35,95.25"/>
    </edge>
    <edge id=":1/1_2" function="internal">
        <lane id=":1/1_2_0" index="0" speed="13.90" length="3.18" shape="98.35,104.75 98.75,101.95 98.93,101.65"/>
    </edge>
    <edge id=":1/1_12" function="internal">
        <lane id=":1/1_12_0" index="0" speed="13.90" length="7.14" shape="98.93,101.65 99.95,99.95 101.95,98.75 104.75,98.35"/>
    </edge>
    <edge id=":1/1_3" function="internal">
        <lane id=":1/1_3_0" index="0" speed="13.90" length="5.00" shape="104.75,101.65 103.39,101.84 102.43,102.43 101.84,103.39 101.65,104.75"/>
    </edge>
    <edge id=":1/1_4" function="internal">
        <lane id=":1/1_4_0" index="0" speed="13.90" length="9.50" shape="104.75,101.65 95.25,101.65"/>
    </edge>
    <edge id=":1/1_5" function="internal">
        <lane id=":1/1_5_0" index="0" speed="13.90" length="3.18" shape="104.75,101.65 101.95,101.25 101.65,101.07"/>
    </edge>
    <edge id=":1/1_13" function="internal">
        <lane id=":1/1_13_0" index="0" speed="13.90" length="7.14" shape="101.65,101.07 99.95,100.05 98.75,98.05 98.35,95.25"/>
    </edge>
    <edge id=":1/1_6" function="internal">
        <lane id=":1/1_6_0" index="0" speed="13.90" length="5.00" shape="101.65,95.25 101.84,96.61 102.43,97.57 103.39,98.16 104.75,98.35"/>
    </edge>
    <edge id=":1/1_7" function="internal">
        <lane id=":1/1_7_0" index="0" speed="13.90" length="9.50" shape="101.65,95.25 101.65,104.75"/>
    </edge>
    <edge id=":1/1_8" function="internal">
        <lane id=":1/1_8_0" index="0" speed="13.90" length="3.18" shape="101.65,95.25 101.25,98.05 101.07,98.35"/>
    </edge>
    <edge id=":1/1_14" function="internal">
        <lane id=":1/1_14_0" index="0" speed="13.90" length="7.14" shape="101.07,98.35 100.05,100.05 98.05,101.25 95.25,101.65"/>
    </edge>
    <edge id=":1/1_9" function="internal">
        <lane id=":1/1_9_0" index="0" speed="13.90" length="5.00" shape="95.25,98.35 96.61,98.16 97.57,97.57 98.16,96.61 98.35,95.25"/>
    </edge>
    <edge id=":1/1_10" function="internal">
        <lane id=":1/1_10_0" index="0" speed="13.90" length="9.50" shape="95.25,98.35 104.75,98.35"/>
    </edge>
    <edge id=":1/1_11" function="internal">
        <lane id=":1/1_11_0" index="0" speed="13.90" length="3.18" shape="95.25,98.35 98.05,98.75 98.35,98.93"/>
    </edge>
    <edge id=":1/1_15" function="internal">
        <lane id=":1/1_15_0" index="0" speed="13.90" length="7.14" shape="98.35,98.93 100.05,99.95 101.25,101.95 101.65,104.75"/>
    </edge>
    <edge id=":1/2_0" function="internal">
        <lane id=":1/2_0_0" index="0" speed="13.90" length="5.00" shape="98.35,204.75 98.16,203.39 97.57,202.42 96.61,201.84 95.25,201.65"/>
    </edge>
    <edge id=":1/2_1" function="internal">
        <lane id=":1/2_1_0" index="0" speed="13.90" length="9.50" shape="98.35,204.75 98.35,195.25"/>
    </edge>
    <edge id=":1/2_2" function="internal">
        <lane id=":1/2_2_0" index="0" speed="13.90" length="3.18" shape="98.35,204.75 98.75,201.95 98.93,201.65"/>
    </edge>
    <edge id=":1/2_12" function="internal">
        <lane id=":1/2_12_0" index="0" speed="13.90" length="7.14" shape="98.93,201.65 99.95,199.95 101.95,198.75 104.75,198.35"/>
    </edge>
    <edge id=":1/2_3" function="internal">
        <lane id=":1/2_3_0" index="0" speed="13.90" length="5.00" shape="104.75,201.65 103.39,201.84 102.43,202.43 101.84,203.39 101.65,204.75"/>
    </edge>
    <edge id=":1/2_4" function="internal">
        <lane id=":1/2_4_0" index="0" speed="13.90" length="9.50" shape="104.75,201.65 95.25,201.65"/>
    </edge>
    <edge id=":1/2_5" function="internal">
        <lane id=":1/2_5_0" index="0" speed="13.90" length="3.18" shape="104.75,201.65 101.95,201.25 101.65,201.07"/>
    </edge>
    <edge id=":1/2_13" function="internal">
        <lane id=":1/2_13_0" index="0" speed="13.90" length="7.14" shape="101.65,201.07 99.95,200.05 98.75,198.05 98.35,195.25"/>
    </edge>
    <edge id=":1/2_6" function="internal">
        <lane id=":1/2_6_0" index="0" speed="13.90" length="5.00" shape="101.65,195.25 101.84,196.61 102.43,197.58 103.39,198.16 104.75,198.35"/>
    </edge>
    <edge id=":1/2_7" function="internal">
        <lane id=":1/2_7_0" index="0" speed="13.90" length="9.50" shape="101.65,195.25 101.65,204.75"/>
    </edge>
    <edge id=":1/2_8" function="internal">
        <lane id=":1/2_8_0" index="0" speed="13.90" length="3.18" shape="101.65,195.25 101.25,198.05 101.07,198.35"/>
    </edge>
    <edge id=":1/2_14" function="internal">
        <lane id=":1/2_14_0" index="0" speed="13.90" length="7.14" shape="101.07,198.35 100.05,200.05 98.05,201.25 95.25,201.65"/>
    </edge>
    <edge id=":1/2_9" function="internal">
        <lane id=":1/2_9_0" index="0" speed="13.90" length="5.00" shape="95.25,198.35 96.61,198.16 97.57,197.57 98.16,196.61 98.35,195.25"/>
    </edge>
    <edge id=":1/2_10" function="internal">
        <lane id=":1/2_10_0" index="0" speed="13.90" length="9.50" shape="95.25,198.35 104.75,198.35"/>
    </edge>
    <edge id=":1/2_11" function="internal">
        <lane id=":1/2_11_0" index="0" speed="13.90" length="3.18" shape="95.25,198.35 98.05,198.75 98.35,198.93"/>
    </edge>
    <edge id=":1/2_15" function="internal">
        <lane id=":1/2_15_0" index="0" speed="13.90" length="7.14" shape="98.35,198.93 100.05,199.95 101.25,201.95 101.65,204.75"/>
    </edge>
    <edge id=":1/3_0" function="internal">
        <lane id=":1/3_0_0" index="0" speed="13.90" length="9.50" shape="104.75,301.65 95.25,301.65"/>
    </edge>
    <edge id=":1/3_1" function="internal">
        <lane id=":1/3_1_0" index="0" speed="13.90" length="7.14" shape="104.75,301.65 101.95,301.25 99.95,300.05 98.93,298.35"/>
    </edge>
    <edge id=":1/3_6" function="internal">
        <lane id=":1/3_6_0" index="0" speed="13.90" length="3.18" shape="98.93,298.35 98.75,298.05 98.35,295.25"/>
    </edge>
    <edge id=":1/3_2" function="internal">
        <lane id=":1/3_2_0" index="0" speed="13.90" length="5.00" shape="101.65,295.25 101.84,296.61 102.43,297.58 103.39,298.16 104.75,298.35"/>
    </edge>
    <edge id=":1/3_3" function="internal">
        <lane id=":1/3_3_0" index="0" speed="13.90" length="3.18" shape="101.65,295.25 101.25,298.05 101.07,298.35"/>
    </edge>
    <edge id=":1/3_7" function="internal">
        <lane id=":1/3_7_0" index="0" speed="13.90" length="7.14" shape="101.07,298.35 100.05,300.05 98.05,301.25 95.25,301.65"/>
    </edge>
    <edge id=":1/3_4" function="internal">
        <lane id=":1/3_4_0" index="0" speed="13.90" length="5.00" shape="95.25,298.35 96.61,298.16 97.57,297.58 98.16,296.61 98.35,295.25"/>
    </edge>
    <edge id=":1/3_5" function="internal">
        <lane id=":1/3_5_0" index="0" speed="13.90" length="9.50" shape="95.25,298.35 104.75,298.35"/>
    </edge>
    <edge id=":2/0_0" function="internal">
        <lane id=":2/0_0_0" index="0" speed="13.90" length="5.00" shape="198.35,4.75 198.16,3.39 197.57,2.42 196.61,1.84 195.25,1.65"/>
    </edge>
    <edge id=":2/0_1" function="internal">
        <lane id=":2/0_1_0" index="0" speed="13.90" length="3.18" shape="198.35,4.75 198.75,1.95 198.93,1.65"/>
    </edge>
    <edge id=":2/0_6" function="internal">
        <lane id=":2/0_6_0" index="0" speed="13.90" length="7.14" shape="198.93,1.65 199.95,-0.05 201.95,-1.25 204.75,-1.65"/>
    </edge>
    <edge id=":2/0_2" function="internal">
        <lane id=":2/0_2_0" index="0" speed="13.90" length="5.00" shape="204.75,1.65 203.39,1.84 202.42,2.42 201.84,3.39 201.65,4.75"/>
    </edge>
    <edge id=":2/0_3" function="internal">
        <lane id=":2/0_3_0" index="0" speed="13.90" length="9.50" shape="204.75,1.65 195.25,1.65"/>
    </edge>
    <edge id=":2/0_4" function="internal">
        <lane id=":2/0_4_0" index="0" speed="13.90" length="9.50" shape="195.25,-1.65 204.75,-1.65"/>
    </edge>
    <edge id=":2/0_5" function="internal">
        <lane id=":2/0_5_0" index="0" speed="13.90" length="7.14" shape="195.25,-1.65 198.05,-1.25 200.05,-0.05 201.07,1.65"/>
    </edge>
    <edge id=":2/0_7" function="internal">
        <lane id=":2/0_7_0" index="0" speed="13.90" length="3.18" shape="201.07,1.65 201.25,1.95 201.65,4.75"/>
    </edge>
    <edge id=":2/1_0" function="internal">
        <lane id=":2/1_0_0" index="0" speed="13.90" length="5.00" shape="198.35,104.75 198.16,103.39 197.57,102.43 196.61,101.84 195.25,101.65"/>
    </edge>
    <edge id=":2/1_1" function="internal">
        <lane id=":2/1_1_0" index="0" speed="13.90" length="9.50" shape="198.35,104.75 198.35,95.25"/>
    </edge>
    <edge id=":2/1_2" function="internal">
        <lane id=":2/1_2_0" index="0" speed="13.90" length="3.18" shape="198.35,104.75 198.75,101.95 198.93,101.65"/>
    </edge>
    <edge id=":2/1_12" function="internal">
        <lane id=":2/1_12_0" index="0" speed="13.90" length="7.14" shape="198.93,101.65 199.95,99.95 201.95,98.75 204.75,98.35"/>
    </edge>
    <edge id=":2/1_3" function="internal">
        <lane id=":2/1_3_0" index="0" speed="13.90" length="5.00" shape="204.75,101.65 203.39,101.84 202.42,102.43 201.84,103.39 201.65,104.75"/>
    </edge>
    <edge id=":2/1_4" function="internal">
        <lane id=":2/1_4_0" index="0" speed="13.90" length="9.50" shape="204.75,101.65 195.25,101.65"/>
    </edge>
    <edge id=":2/1_5" function="internal">
        <lane id=":2/1_5_0" index="0" speed="13.90" length="3.18" shape="204.75,101.65 201.95,101.25 201.65,101.07"/>
    </edge>
    <edge id=":2/1_13" function="internal">
        <lane id=":2/1_13_0" index="0" speed="13.90" length="7.14" shape="201.65,101.07 199.95,100.05 198.75,98.05 198.35,95.25"/>
    </edge>
    <edge id=":2/1_6" function="internal">
        <lane id=":2/1_6_0" index="0" speed="13.90" length="5.00" shape="201.65,95.25 201.84,96.61 202.43,97.57 203.39,98.16 204.75,98.35"/>
    </edge>
    <edge id=":2/1_7" function="internal">
        <lane id=":2/1_7_0" index="0" speed="13.90" length="9.50" shape="201.65,95.25 201.65,104.75"/>
    </edge>
    <edge id=":2/1_8" function="internal">
        <lane id=":2/1_8_0" index="0" speed="13.90" length="3.18" shape="201.65,95.25 201.25,98.05 201.07,98.35"/>
    </edge>
    <edge id=":2/1_14" function="internal">
        <lane id=":2/1_14_0" index="0" speed="13.90" length="7.14" shape="201.07,98.35 200.05,100.05 198.05,101.25 195.25,101.65"/>
    </edge>
    <edge id=":2/1_9" function="internal">
        <lane id=":2/1_9_0" index="0" speed="13.90" length="5.00" shape="195.25,98.35 196.61,98.16 197.58,97.57 198.16,96.61 198.35,95.25"/>
    </edge>
    <edge id=":2/1_10" function="internal">
        <lane id=":2/1_10_0" index="0" speed="13.90" length="9.50" shape="195.25,98.35 204.75,98.35"/>
    </edge>
    <edge id=":2/1_11" function="internal">
        <lane id=":2/1_11_0" index="0" speed="13.90" length="3.18" shape="195.25,98.35 198.05,98.75 198.35,98.93"/>
    </edge>
    <edge id=":2/1_15" function="internal">
        <lane id=":2/1_15_0" index="0" speed="13.90" length="7.14" shape="198.35,98.93 200.05,99.95 201.25,101.95 201.65,104.75"/>
    </edge>
    <edge id=":2/2_0" function="internal">
        <lane id=":2/2_0_0" index="0" speed="13.90" length="5.00" shape="198.35,204.75 198.16,203.39 197.57,202.42 196.61,201.84 195.25,201.65"/>
    </edge>
    <edge id=":2/2_1" function="internal">
        <lane id=":2/2_1_0" index="0" speed="13.90" length="9.50" shape="198.35,204.75 198.35,195.25"/>
    </edge>
    <edge id=":2/2_2" function="internal">
        <lane id=":2/2_2_0" index="0" speed="13.90" length="3.18" shape="198.35,204.75 198.75,201.95 198.93,201.65"/>
    </edge>
    <edge id=":2/2_12" function="internal">
        <lane id=":2/2_12_0" index="0" speed="13.90" length="7.14" shape="198.93,201.65 199.95,199.95 201.95,198.75 204.75,198.35"/>
    </edge>
    <edge id=":2/2_3" function="internal">
        <lane id=":2/2_3_0" index="0" speed="13.90" length="5.00" shape="204.75,201.65 203.39,201.84 202.42,202.43 201.84,203.39 201.65,204.75"/>
    </edge>
    <edge id=":2/2_4" function="internal">
        <lane id=":2/2_4_0" index="0" speed="13.90" length="9.50" shape="204.75,201.65 195.25,201.65"/>
    </edge>
    <edge id=":2/2_5" function="internal">
        <lane id=":2/2_5_0" index="0" speed="13.90" length="3.18" shape="204.75,201.65 201.95,201.25 201.65,201.07"/>
    </edge>
    <edge id=":2/2_13" function="internal">
        <lane id=":2/2_13_0" index="0" speed="13.90" length="7.14" shape="201.65,201.07 199.95,200.05 198.75,198.05 198.35,195.25"/>
    </edge>
    <edge id=":2/2_6" function="internal">
        <lane id=":2/2_6_0" index="0" speed="13.90" length="5.00" shape="201.65,195.25 201.84,196.61 202.43,197.58 203.39,198.16 204.75,198.35"/>
    </edge>
    <edge id=":2/2_7" function="internal">
        <lane id=":2/2_7_0" index="0" speed="13.90" length="9.50" shape="201.65,195.25 201.65,204.75"/>
    </edge>
    <edge id=":2/2_8" function="internal">
        <lane id=":2/2_8_0" index="0" speed="13.90" length="3.18" shape="201.65,195.25 201.25,198.05 201.07,198.35"/>
    </edge>
    <edge id=":2/2_14" function="internal">
        <lane id=":2/2_14_0" index="0" speed="13.90" length="7.14" shape="201.07,198.35 200.05,200.05 198.05,201.25 195.25,201.65"/>
    </edge>
    <edge id=":2/2_9" function="internal">
        <lane id=":2/2_9_0" index="0" speed="13.90" length="5.00" shape="195.25,198.35 196.61,198.16 197.58,197.57 198.16,196.61 198.35,195.25"/>
    </edge>
    <edge id=":2/2_10" function="internal">
        <lane id=":2/2_10_0" index="0" speed="13.90" length="9.50" shape="195.25,198.35 204.75,198.35"/>
    </edge>
    <edge id=":2/2_11" function="internal">
        <lane id=":2/2_11_0" index="0" speed="13.90" length="3.18" shape="195.25,198.35 198.05,198.75 198.35,198.93"/>
    </edge>
    <edge id=":2/2_15" function="internal">
        <lane id=":2/2_15_0" index="0" speed="13.90" length="7.14" shape="198.35,198.93 200.05,199.95 201.25,201.95 201.65,204.75"/>
    </edge>
    <edge id=":2/3_0" function="internal">
        <lane id=":2/3_0_0" index="0" speed="13.90" length="9.50" shape="204.75,301.65 195.25,301.65"/>
    </edge>
    <edge id=":2/3_1" function="internal">
        <lane id=":2/3_1_0" index="0" speed="13.90" length="7.14" shape="204.75,301.65 201.95,301.25 199.95,300.05 198.93,298.35"/>
    </edge>
    <edge id=":2/3_6" function="internal">
        <lane id=":2/3_6_0" index="0" speed="13.90" length="3.18" shape="198.93,298.35 198.75,298.05 198.35,295.25"/>
    </edge>
    <edge id=":2/3_2" function="internal">
        <lane id=":2/3_2_0" index="0" speed="13.90" length="5.00" shape="201.65,295.25 201.84,296.61 202.43,297.58 203.39,298.16 204.75,298.35"/>
    </edge>
    <edge id=":2/3_3" function="internal">
        <lane id=":2/3_3_0" index="0" speed="13.90" length="3.18" shape="201.65,295.25 201.25,298.05 201.07,298.35"/>
    </edge>
    <edge id=":2/3_7" function="internal">
        <lane id=":2/3_7_0" index="0" speed="13.90" length="7.14" shape="201.07,298.35 200.05,300.05 198.05,301.25 195.25,301.65"/>
    </edge>
    <edge id=":2/3_4" function="internal">
        <lane id=":2/3_4_0" index="0" speed="13.90" length="5.00" shape="195.25,298.35 196.61,298.16 197.58,297.58 198.16,296.61 198.35,295.25"/>
    </edge>
    <edge id=":2/3_5" function="internal">
        <lane id=":2/3_5_0" index="0" speed="13.90" length="9.50" shape="195.25,298.35 204.75,298.35"/>
    </edge>
    <edge id=":3/0_0" function="internal">
        <lane id=":3/0_0_0" index="0" speed="13.90" length="2.58" shape="298.35,3.25 298.25,2.55 297.95,2.05 297.45,1.75 296.75,1.65"/>
    </edge>
    <edge id=":3/0_1" function="internal">
        <lane id=":3/0_1_0" index="0" speed="13.90" length="7.90" shape="296.75,-1.65 298.89,-1.34 300.42,-0.43 301.34,1.11 301.65,3.25"/>
    </edge>
    <edge id=":3/1_0" function="internal">
        <lane id=":3/1_0_0" index="0" speed="13.90" length="5.00" shape="298.35,104.75 298.16,103.39 297.58,102.43 296.61,101.84 295.25,101.65"/>
    </edge>
    <edge id=":3/1_1" function="internal">
        <lane id=":3/1_1_0" index="0" speed="13.90" length="9.50" shape="298.35,104.75 298.35,95.25"/>
    </edge>
    <edge id=":3/1_2" function="internal">
        <lane id=":3/1_2_0" index="0" speed="13.90" length="9.50" shape="301.65,95.25 301.65,104.75"/>
    </edge>
    <edge id=":3/1_3" function="internal">
        <lane id=":3/1_3_0" index="0" speed="13.90" length="7.14" shape="301.65,95.25 301.25,98.05 300.05,100.05 298.35,101.07"/>
    </edge>
    <edge id=":3/1_6" function="internal">
        <lane id=":3/1_6_0" index="0" speed="13.90" length="3.18" shape="298.35,101.07 298.05,101.25 295.25,101.65"/>
    </edge>
    <edge id=":3/1_4" function="internal">
        <lane id=":3/1_4_0" index="0" speed="13.90" length="5.00" shape="295.25,98.35 296.61,98.16 297.58,97.57 298.16,96.61 298.35,95.25"/>
    </edge>
    <edge id=":3/1_5" function="internal">
        <lane id=":3/1_5_0" index="0" speed="13.90" length="3.18" shape="295.25,98.35 298.05,98.75 298.35,98.93"/>
    </edge>
    <edge id=":3/1_7" function="internal">
        <lane id=":3/1_7_0" index="0" speed="13.90" length="7.14" shape="298.35,98.93 300.05,99.95 301.25,101.95 301.65,104.75"/>
    </edge>
    <edge id=":3/2_0" function="internal">
        <lane id=":3/2_0_0" index="0" speed="13.90" length="5.00" shape="298.35,204.75 298.16,203.39 297.58,202.42 296.61,201.84 295.25,201.65"/>
    </edge>
    <edge id=":3/2_1" function="internal">
        <lane id=":3/2_1_0" index="0" speed="13.90" length="9.50" shape="298.35,204.75 298.35,195.25"/>
    </edge>
    <edge id=":3/2_2" function="internal">
        <lane id=":3/2_2_0" index="0" speed="13.90" length="9.50" shape="301.65,195.25 301.65,204.75"/>
    </edge>
    <edge id=":3/2_3" function="internal">
        <lane id=":3/2_3_0" index="0" speed="13.90" length="7.14" shape="301.65,195.25 301.25,198.05 300.05,200.05 298.35,201.07"/>
    </edge>
    <edge id=":3/2_6" function="internal">
        <lane id=":3/2_6_0" index="0" speed="13.90" length="3.18" shape="298.35,201.07 298.05,201.25 295.25,201.65"/>
    </edge>
    <edge id=":3/2_4" function="internal">
        <lane id=":3/2_4_0" index="0" speed="13.90" length="5.00" shape="295.25,198.35 296.61,198.16 297.58,197.57 298.16,196.61 298.35,195.25"/>
    </edge>
    <edge id=":3/2_5" function="internal">
        <lane id=":3/2_5_0" index="0" speed="13.90" length="3.18" shape="295.25,198.35 298.05,198.75 298.35,198.93"/>
    </edge>
    <edge id=":3/2_7" function="internal">
        <lane id=":3/2_7_0" index="0" speed="13.90" length="7.14" shape="298.35,198.93 300.05,199.95 301.25,201.95 301.65,204.75"/>
    </edge>
    <edge id=":3/3_0" function="internal">
        <lane id=":3/3_0_0" index="0" speed="13.90" length="7.90" shape="301.65,296.75 301.34,298.89 300.42,300.42 298.89,301.34 296.75,301.65"/>
    </edge>
    <edge id=":3/3_1" function="internal">
        <lane id=":3/3_1_0" index="0" speed="13.90" length="2.58" shape="296.75,298.35 297.45,298.25 297.95,297.95 298.25,297.45 298.35,296.75"/>
    </edge>

    <edge id="0/0to0/1" from="0/0" to="0/1" priority="-1">
        <lane id="0/0to0/1_0" index="0" speed="13.90" length="92.00" shape="1.65,3.25 1.65,95.25"/>
    </edge>
    <edge id="0/0to1/0" from="0/0" to="1/0" priority="-1">
        <lane id="0/0to1/0_0" index="0" speed="13.90" length="92.00" shape="3.25,-1.65 95.25,-1.65"/>
    </edge>
    <edge id="0/1to0/0" from="0/1" to="0/0" priority="-1">
        <lane id="0/1to0/0_0" index="0" speed="13.90" length="92.00" shape="-1.65,95.25 -1.65,3.25"/>
    </edge>
    <edge id="0/1to0/2" from="0/1" to="0/2" priority="-1">
        <lane id="0/1to0/2_0" index="0" speed="13.90" length="90.50" shape="1.65,104.75 1.65,195.25"/>
    </edge>
    <edge id="0/1to1/1" from="0/1" to="1/1" priority="-1">
        <lane id="0/1to1/1_0" index="0" speed="13.90" length="90.50" shape="4.75,98.35 95.25,98.35"/>
    </edge>
    <edge id="0/2to0/1" from="0/2" to="0/1" priority="-1">
        <lane id="0/2to0/1_0" index="0" speed="13.90" length="90.50" shape="-1.65,195.25 -1.65,104.75"/>
    </edge>
    <edge id="0/2to0/3" from="0/2" to="0/3" priority="-1">
        <lane id="0/2to0/3_0" index="0" speed="13.90" length="92.00" shape="1.65,204.75 1.65,296.75"/>
    </edge>
    <edge id="0/2to1/2" from="0/2" to="1/2" priority="-1">
        <lane id="0/2to1/2_0" index="0" speed="13.90" length="90.50" shape="4.75,198.35 95.25,198.35"/>
    </edge>
    <edge id="0/3to0/2" from="0/3" to="0/2" priority="-1">
        <lane id="0/3to0/2_0" index="0" speed="13.90" length="92.00" shape="-1.65,296.75 -1.65,204.75"/>
    </edge>
    <edge id="0/3to1/3" from="0/3" to="1/3" priority="-1">
        <lane id="0/3to1/3_0" index="0" speed="13.90" length="92.00" shape="3.25,298.35 95.25,298.35"/>
    </edge>
    <edge id="1/0to0/0" from="1/0" to="0/0" priority="-1">
        <lane id="1/0to0/0_0" index="0" speed="13.90" length="92.00" shape="95.25,1.65 3.25,1.65"/>
    </edge>
    <edge id="1/0to1/1" from="1/0" to="1/1" priority="-1">
        <lane id="1/0to1/1_0" index="0" speed="13.90" length="90.50" shape="101.65,4.75 101.65,95.25"/>
    </edge>
    <edge id="1/0to2/0" from="1/0" to="2/0" priority="-1">
        <lane id="1/0to2/0_0" index="0" speed="13.90" length="90.50" shape="104.75,-1.65 195.25,-1.65"/>
    </edge>
    <edge id="1/1to0/1" from="1/1" to="0/1" priority="-1">
        <lane id="1/1to0/1_0" index="0" speed="13.90" length="90.50" shape="95.25,101.65 4.75,101.65"/>
    </edge>
    <edge id="1/1to1/0" from="1/1" to="1/0" priority="-1">
        <lane id="1/1to1/0_0" index="0" speed="13.90" length="90.50" shape="98.35,95.25 98.35,4.75"/>
    </edge>
    <edge id="1/1to1/2" from="1/1" to="1/2" priority="-1">
        <lane id="1/1to1/2_0" index="0" speed="13.90" length="90.50" shape="101.65,104.75 101.65,195.25"/>
    </edge>
    <edge id="1/1to2/1" from="1/1" to="2/1" priority="-1">
        <lane id="1/1to2/1_0" index="0" speed="13.90" length="90.50" shape="104.75,98.35 195.25,98.35"/>
    </edge>
    <edge id="1/2to0/2" from="1/2" to="0/2" priority="-1">
        <lane id="1/2to0/2_0" index="0" speed="13.90" length="90.50" shape="95.25,201.65 4.75,201.65"/>
    </edge>
    <edge id="1/2to1/1" from="1/2" to="1/1" priority="-1">
        <lane id="1/2to1/1_0" index="0" speed="13.90" length="90.50" shape="98.35,195.25 98.35,104.75"/>
    </edge>
    <edge id="1/2to1/3" from="1/2" to="1/3" priority="-1">
        <lane id="1/2to1/3_0" index="0" speed="13.90" length="90.50" shape="101.65,204.75 101.65,295.25"/>
    </edge>
    <edge id="1/2to2/2" from="1/2" to="2/2" priority="-1">
        <lane id="1/2to2/2_0" index="0" speed="13.90" length="90.50" shape="104.75,198.35 195.25,198.35"/>
    </edge>
    <edge id="1/3to0/3" from="1/3" to="0/3" priority="-1">
        <lane id="1/3to0/3_0" index="0" speed="13.90" length="92.00" shape="95.25,301.65 3.25,301.65"/>
    </edge>
    <edge id="1/3to1/2" from="1/3" to="1/2" priority="-1">
        <lane id="1/3to1/2_0" index="0" speed="13.90" length="90.50" shape="98.35,295.25 98.35,204.75"/>
    </edge>
    <edge id="1/3to2/3" from="1/3" to="2/3" priority="-1">
        <lane id="1/3to2/3_0" index="0" speed="13.90" length="90.50" shape="104.75,298.35 195.25,298.35"/>
    </edge>